2GQG_1N1_A_501
  RCSB PDB12061705423D
Coordinates from PDB:2GQG:A:501 Model:1 without hydrogens
 33 36  0  0  0  0            999 V2000
   46.6110   82.6200   38.8410   C 0  0  0  0  0  0  0  0  0  0  0  0
   46.7750   82.0670   40.0440   C 0  0  0  0  0  0  0  0  0  0  0  0
   47.6870   82.4940   41.1480   C 0  0  0  0  0  0  0  0  0  0  0  0
   39.1540   74.8480   36.4620   N 0  0  0  0  0  0  0  0  0  0  0  0
   51.3280   84.7110   43.8460   C 0  0  0  0  0  0  0  0  0  0  0  0
   51.6490   83.9220   42.7330   C 0  0  0  0  0  0  0  0  0  0  0  0
   50.6600   83.5350   41.8220   C 0  0  0  0  0  0  0  0  0  0  0  0
   51.0540   82.7460   40.6060   C 0  0  0  0  0  0  0  0  0  0  0  0
   43.3450   79.0450   38.8240   C 0  0  0  0  0  0  0  0  0  0  0  0
   42.2600   78.4660   38.1410   C 0  0  0  0  0  0  0  0  0  0  0  0
   41.6410   77.3640   38.7640   C 0  0  0  0  0  0  0  0  0  0  0  0
   43.1380   77.5250   40.5610   C 0  0  0  0  0  0  0  0  0  0  0  0
   43.6000   77.0970   41.9190   C 0  0  0  0  0  0  0  0  0  0  0  0
   39.8200   75.5660   38.8090   C 0  0  0  0  0  0  0  0  0  0  0  0
   39.9050   77.1490   36.8840   C 0  0  0  0  0  0  0  0  0  0  0  0
   39.2210   73.7370   35.5030   C 0  0  0  0  0  0  0  0  0  0  0  0
   38.3550   73.8890   34.2270   C 0  0  0  0  0  0  0  0  0  0  0  0
   43.9770   80.1180   38.2570   N 0  0  0  0  0  0  0  0  0  0  0  0
   45.0120   80.8680   38.7420   C 0  0  0  0  0  0  0  0  0  0  0  0
   45.5400   81.9390   38.1020   N 0  0  0  0  0  0  0  0  0  0  0  0
   45.8120   80.6770   40.2960   S 0  0  0  0  0  0  0  0  0  0  0  0
   48.3930   83.6260   41.1040   N 0  0  0  0  0  0  0  0  0  0  0  0
   49.3330   83.9150   42.0370   C 0  0  0  0  0  0  0  0  0  0  0  0
   49.0210   84.6530   43.2010   C 0  0  0  0  0  0  0  0  0  0  0  0
   50.0050   85.0710   44.1070   C 0  0  0  0  0  0  0  0  0  0  0  0
   47.3940   85.0560   43.5890  Cl 0  0  0  0  0  0  0  0  0  0  0  0
   47.7260   81.7050   42.0920   O 0  0  0  0  0  0  0  0  0  0  0  0
   42.0970   76.9050   39.9750   N 0  0  0  0  0  0  0  0  0  0  0  0
   43.7640   78.5580   40.0120   N 0  0  0  0  0  0  0  0  0  0  0  0
   40.4900   76.7170   38.1650   N 0  0  0  0  0  0  0  0  0  0  0  0
   39.6220   74.4100   37.7990   C 0  0  0  0  0  0  0  0  0  0  0  0
   39.9110   75.9790   35.8960   C 0  0  0  0  0  0  0  0  0  0  0  0
   37.4960   75.0150   34.2610   O 0  0  0  0  0  0  0  0  0  0  0  0
  1  2  2  0  0  0  0
  1 20  1  0  0  0  0
  2  3  1  0  0  0  0
  2 21  1  0  0  0  0
  3 22  1  0  0  0  0
  3 27  2  0  0  0  0
  4 16  1  0  0  0  0
  4 31  1  0  0  0  0
  4 32  1  0  0  0  0
  5  6  2  0  0  0  0
  5 25  1  0  0  0  0
  6  7  1  0  0  0  0
  7  8  1  0  0  0  0
  7 23  2  0  0  0  0
  9 10  1  0  0  0  0
  9 18  1  0  0  0  0
  9 29  2  0  0  0  0
 10 11  2  0  0  0  0
 11 28  1  0  0  0  0
 11 30  1  0  0  0  0
 12 13  1  0  0  0  0
 12 28  2  0  0  0  0
 12 29  1  0  0  0  0
 14 30  1  0  0  0  0
 14 31  1  0  0  0  0
 15 30  1  0  0  0  0
 15 32  1  0  0  0  0
 16 17  1  0  0  0  0
 17 33  1  0  0  0  0
 18 19  1  0  0  0  0
 19 20  2  0  0  0  0
 19 21  1  0  0  0  0
 22 23  1  0  0  0  0
 23 24  1  0  0  0  0
 24 25  2  0  0  0  0
 24 26  1  0  0  0  0
A    1
C1
A    2
C2
A    3
C3
A    4
N6
A    5
C7
A    6
C8
A    7
C9
A    8
C10
A    9
C11
A   10
C12
A   11
C13
A   12
C14
A   13
C15
A   14
C16
A   15
C19
A   16
C20
A   17
C21
A   18
N
A   19
C
A   20
N1
A   21
S
A   22
N2
A   23
C4
A   24
C5
A   25
C6
A   26
CL
A   27
O
A   28
N3
A   29
N4
A   30
N5
A   31
C17
A   32
C18
A   33
O1
M  END
>  <InstanceId>
2GQG_1N1_A_501

>  <ChemCompId>
1N1

>  <PdbId>
2GQG

>  <ChainId>
A

>  <ResidueNumber>
501

>  <InsertionCode>


>  <Model>
1

>  <AltIds>


>  <MissingHeavyAtoms>
0

>  <ObservedFormula>
C22 N7 O2 S Cl

>  <Name>
N-(2-CHLORO-6-METHYLPHENYL)-2-({6-[4-(2-HYDROXYETHYL)PIPERAZIN-1-YL]-2-METHYLPYRIMIDIN-4-YL}AMINO)-1,3-THIAZOLE-5-CARBOXAMIDE

>  <SystematicName>
N-(2-chloranyl-6-methyl-phenyl)-2-[[6-[4-(2-hydroxyethyl)piperazin-1-yl]-2-methyl-pyrimidin-4-yl]amino]-1,3-thiazole-5-carboxamide

>  <Synonyms>
Dasatinib

>  <Type>
NON-POLYMER

>  <Formula>
C22 H26 Cl N7 O2 S

>  <MolecularWeight>
488.006

>  <ModifiedDate>
2011-07-22

>  <Parent>


>  <OneLetterCode>


>  <SubcomponentList>


>  <AmbiguousFlag>
N

>  <InChI>
InChI=1S/C22H26ClN7O2S/c1-14-4-3-5-16(23)20(14)28-21(32)17-13-24-22(33-17)27-18-12-19(26-15(2)25-18)30-8-6-29(7-9-30)10-11-31/h3-5,12-13,31H,6-11H2,1-2H3,(H,28,32)(H,24,25,26,27)

>  <InChIKey>
ZBNZXTGUTAYRHI-UHFFFAOYSA-N

>  <SMILES>
Cc1cccc(c1NC(=O)c2cnc(s2)Nc3cc(nc(n3)C)N4CCN(CC4)CCO)Cl

$$$$
2GQG_1N1_B_502
  RCSB PDB12061705423D
Coordinates from PDB:2GQG:B:502 Model:1 without hydrogens
 33 36  0  0  0  0            999 V2000
   45.0920   21.1980   44.0220   C 0  0  0  0  0  0  0  0  0  0  0  0
   45.2320   21.7900   42.8220   C 0  0  0  0  0  0  0  0  0  0  0  0
   46.1380   21.4040   41.6930   C 0  0  0  0  0  0  0  0  0  0  0  0
   37.8580   29.3200   46.7410   N 0  0  0  0  0  0  0  0  0  0  0  0
   49.5720   19.2410   38.6830   C 0  0  0  0  0  0  0  0  0  0  0  0
   49.9920   20.0530   39.7340   C 0  0  0  0  0  0  0  0  0  0  0  0
   49.1070   20.4520   40.7440   C 0  0  0  0  0  0  0  0  0  0  0  0
   49.6460   21.3380   41.8210   C 0  0  0  0  0  0  0  0  0  0  0  0
   41.9280   24.8430   44.3640   C 0  0  0  0  0  0  0  0  0  0  0  0
   40.9280   25.4650   45.1470   C 0  0  0  0  0  0  0  0  0  0  0  0
   40.3420   26.6350   44.6060   C 0  0  0  0  0  0  0  0  0  0  0  0
   41.7070   26.4480   42.7130   C 0  0  0  0  0  0  0  0  0  0  0  0
   42.2170   26.9640   41.3950   C 0  0  0  0  0  0  0  0  0  0  0  0
   38.4330   28.2200   44.5120   C 0  0  0  0  0  0  0  0  0  0  0  0
   38.7370   26.8970   46.5690   C 0  0  0  0  0  0  0  0  0  0  0  0
   38.6540   30.3560   47.4350   C 0  0  0  0  0  0  0  0  0  0  0  0
   38.5070   30.5380   48.9590   C 0  0  0  0  0  0  0  0  0  0  0  0
   42.5570   23.7240   44.8230   N 0  0  0  0  0  0  0  0  0  0  0  0
   43.4580   22.9160   44.1980   C 0  0  0  0  0  0  0  0  0  0  0  0
   43.9610   21.8100   44.7770   N 0  0  0  0  0  0  0  0  0  0  0  0
   44.2160   23.1540   42.6110   S 0  0  0  0  0  0  0  0  0  0  0  0
   46.8710   20.2910   41.6870   N 0  0  0  0  0  0  0  0  0  0  0  0
   47.7490   20.0250   40.6910   C 0  0  0  0  0  0  0  0  0  0  0  0
   47.3460   19.2730   39.5890   C 0  0  0  0  0  0  0  0  0  0  0  0
   48.2370   18.8860   38.5970   C 0  0  0  0  0  0  0  0  0  0  0  0
   45.7120   18.7580   39.4040  Cl 0  0  0  0  0  0  0  0  0  0  0  0
   46.1400   22.2090   40.7620   O 0  0  0  0  0  0  0  0  0  0  0  0
   40.7480   27.1060   43.3800   N 0  0  0  0  0  0  0  0  0  0  0  0
   42.2870   25.3460   43.1770   N 0  0  0  0  0  0  0  0  0  0  0  0
   39.3580   27.4000   45.3300   N 0  0  0  0  0  0  0  0  0  0  0  0
   38.0180   29.4710   45.2700   C 0  0  0  0  0  0  0  0  0  0  0  0
   37.9240   27.9510   47.3220   C 0  0  0  0  0  0  0  0  0  0  0  0
   39.7210   30.9530   49.5710   O 0  0  0  0  0  0  0  0  0  0  0  0
  1  2  2  0  0  0  0
  1 20  1  0  0  0  0
  2  3  1  0  0  0  0
  2 21  1  0  0  0  0
  3 22  1  0  0  0  0
  3 27  2  0  0  0  0
  4 16  1  0  0  0  0
  4 31  1  0  0  0  0
  4 32  1  0  0  0  0
  5  6  2  0  0  0  0
  5 25  1  0  0  0  0
  6  7  1  0  0  0  0
  7  8  1  0  0  0  0
  7 23  2  0  0  0  0
  9 10  1  0  0  0  0
  9 18  1  0  0  0  0
  9 29  2  0  0  0  0
 10 11  2  0  0  0  0
 11 28  1  0  0  0  0
 11 30  1  0  0  0  0
 12 13  1  0  0  0  0
 12 28  2  0  0  0  0
 12 29  1  0  0  0  0
 14 30  1  0  0  0  0
 14 31  1  0  0  0  0
 15 30  1  0  0  0  0
 15 32  1  0  0  0  0
 16 17  1  0  0  0  0
 17 33  1  0  0  0  0
 18 19  1  0  0  0  0
 19 20  2  0  0  0  0
 19 21  1  0  0  0  0
 22 23  1  0  0  0  0
 23 24  1  0  0  0  0
 24 25  2  0  0  0  0
 24 26  1  0  0  0  0
A    1
C1
A    2
C2
A    3
C3
A    4
N6
A    5
C7
A    6
C8
A    7
C9
A    8
C10
A    9
C11
A   10
C12
A   11
C13
A   12
C14
A   13
C15
A   14
C16
A   15
C19
A   16
C20
A   17
C21
A   18
N
A   19
C
A   20
N1
A   21
S
A   22
N2
A   23
C4
A   24
C5
A   25
C6
A   26
CL
A   27
O
A   28
N3
A   29
N4
A   30
N5
A   31
C17
A   32
C18
A   33
O1
M  END
>  <InstanceId>
2GQG_1N1_B_502

>  <ChemCompId>
1N1

>  <PdbId>
2GQG

>  <ChainId>
B

>  <ResidueNumber>
502

>  <InsertionCode>


>  <Model>
1

>  <AltIds>


>  <MissingHeavyAtoms>
0

>  <ObservedFormula>
C22 N7 O2 S Cl

>  <Name>
N-(2-CHLORO-6-METHYLPHENYL)-2-({6-[4-(2-HYDROXYETHYL)PIPERAZIN-1-YL]-2-METHYLPYRIMIDIN-4-YL}AMINO)-1,3-THIAZOLE-5-CARBOXAMIDE

>  <SystematicName>
N-(2-chloranyl-6-methyl-phenyl)-2-[[6-[4-(2-hydroxyethyl)piperazin-1-yl]-2-methyl-pyrimidin-4-yl]amino]-1,3-thiazole-5-carboxamide

>  <Synonyms>
Dasatinib

>  <Type>
NON-POLYMER

>  <Formula>
C22 H26 Cl N7 O2 S

>  <MolecularWeight>
488.006

>  <ModifiedDate>
2011-07-22

>  <Parent>


>  <OneLetterCode>


>  <SubcomponentList>


>  <AmbiguousFlag>
N

>  <InChI>
InChI=1S/C22H26ClN7O2S/c1-14-4-3-5-16(23)20(14)28-21(32)17-13-24-22(33-17)27-18-12-19(26-15(2)25-18)30-8-6-29(7-9-30)10-11-31/h3-5,12-13,31H,6-11H2,1-2H3,(H,28,32)(H,24,25,26,27)

>  <InChIKey>
ZBNZXTGUTAYRHI-UHFFFAOYSA-N

>  <SMILES>
Cc1cccc(c1NC(=O)c2cnc(s2)Nc3cc(nc(n3)C)N4CCN(CC4)CCO)Cl

$$$$
