4XEY_1N1_B_601
  RCSB PDB12061716123D
Coordinates from PDB:4XEY:B:601 Model:1 without hydrogens
 33 36  0  0  0  0            999 V2000
  -44.6700  -17.1000    1.2760   C 0  0  0  0  0  0  0  0  0  0  0  0
  -43.3930  -16.8300    1.7820   C 0  0  0  0  0  0  0  0  0  0  0  0
  -42.3070  -17.7200    2.2770   C 0  0  0  0  0  0  0  0  0  0  0  0
  -46.3870   -6.5270   -0.4900   N 0  0  0  0  0  0  0  0  0  0  0  0
  -39.4800  -21.5960    3.8890   C 0  0  0  0  0  0  0  0  0  0  0  0
  -40.6120  -21.2320    4.6120   C 0  0  0  0  0  0  0  0  0  0  0  0
  -41.6010  -20.3940    4.0670   C 0  0  0  0  0  0  0  0  0  0  0  0
  -42.7880  -20.0730    4.9430   C 0  0  0  0  0  0  0  0  0  0  0  0
  -44.8050  -12.3630    1.1310   C 0  0  0  0  0  0  0  0  0  0  0  0
  -45.4480  -11.2350    0.6630   C 0  0  0  0  0  0  0  0  0  0  0  0
  -44.8340   -9.9990    0.9020   C 0  0  0  0  0  0  0  0  0  0  0  0
  -43.0640  -10.9780    2.0060   C 0  0  0  0  0  0  0  0  0  0  0  0
  -41.7530  -10.8540    2.7480   C 0  0  0  0  0  0  0  0  0  0  0  0
  -46.8170   -8.7570    0.3310   C 0  0  0  0  0  0  0  0  0  0  0  0
  -44.4770   -7.6500    0.4610   C 0  0  0  0  0  0  0  0  0  0  0  0
  -47.1660   -5.8140   -1.4990   C 0  0  0  0  0  0  0  0  0  0  0  0
  -46.4210   -4.5180   -1.7870   C 0  0  0  0  0  0  0  0  0  0  0  0
  -45.3360  -13.6190    0.9260   N 0  0  0  0  0  0  0  0  0  0  0  0
  -44.7200  -14.8070    1.2030   C 0  0  0  0  0  0  0  0  0  0  0  0
  -45.3680  -15.9630    0.9660   N 0  0  0  0  0  0  0  0  0  0  0  0
  -43.0980  -15.0920    1.8620   S 0  0  0  0  0  0  0  0  0  0  0  0
  -42.4550  -19.0580    2.2480   N 0  0  0  0  0  0  0  0  0  0  0  0
  -41.4990  -19.8940    2.7790   C 0  0  0  0  0  0  0  0  0  0  0  0
  -40.3500  -20.2640    2.0600   C 0  0  0  0  0  0  0  0  0  0  0  0
  -39.3560  -21.1010    2.5920   C 0  0  0  0  0  0  0  0  0  0  0  0
  -40.1090  -19.6740    0.3900  Cl 0  0  0  0  0  0  0  0  0  0  0  0
  -41.3010  -17.1650    2.6820   O 0  0  0  0  0  0  0  0  0  0  0  0
  -43.6700   -9.8680    1.5590   N 0  0  0  0  0  0  0  0  0  0  0  0
  -43.6420  -12.1840    1.7850   N 0  0  0  0  0  0  0  0  0  0  0  0
  -45.3830   -8.8200    0.4840   N 0  0  0  0  0  0  0  0  0  0  0  0
  -47.1620   -7.2960    0.4840   C 0  0  0  0  0  0  0  0  0  0  0  0
  -44.9450   -6.6930   -0.6280   C 0  0  0  0  0  0  0  0  0  0  0  0
  -46.4270   -3.7490   -0.5670   O 0  0  0  0  0  0  0  0  0  0  0  0
  1  2  2  0  0  0  0
  1 20  1  0  0  0  0
  2  3  1  0  0  0  0
  2 21  1  0  0  0  0
  3 22  1  0  0  0  0
  3 27  2  0  0  0  0
  4 16  1  0  0  0  0
  4 31  1  0  0  0  0
  4 32  1  0  0  0  0
  5  6  2  0  0  0  0
  5 25  1  0  0  0  0
  6  7  1  0  0  0  0
  7  8  1  0  0  0  0
  7 23  2  0  0  0  0
  9 10  1  0  0  0  0
  9 18  1  0  0  0  0
  9 29  2  0  0  0  0
 10 11  2  0  0  0  0
 11 28  1  0  0  0  0
 11 30  1  0  0  0  0
 12 13  1  0  0  0  0
 12 28  2  0  0  0  0
 12 29  1  0  0  0  0
 14 30  1  0  0  0  0
 14 31  1  0  0  0  0
 15 30  1  0  0  0  0
 15 32  1  0  0  0  0
 16 17  1  0  0  0  0
 17 33  1  0  0  0  0
 18 19  1  0  0  0  0
 19 20  2  0  0  0  0
 19 21  1  0  0  0  0
 22 23  1  0  0  0  0
 23 24  1  0  0  0  0
 24 25  2  0  0  0  0
 24 26  1  0  0  0  0
A    1
C1
A    2
C2
A    3
C3
A    4
N6
A    5
C7
A    6
C8
A    7
C9
A    8
C10
A    9
C11
A   10
C12
A   11
C13
A   12
C14
A   13
C15
A   14
C16
A   15
C19
A   16
C20
A   17
C21
A   18
N
A   19
C
A   20
N1
A   21
S
A   22
N2
A   23
C4
A   24
C5
A   25
C6
A   26
CL
A   27
O
A   28
N3
A   29
N4
A   30
N5
A   31
C17
A   32
C18
A   33
O1
M  END
>  <InstanceId>
4XEY_1N1_B_601

>  <ChemCompId>
1N1

>  <PdbId>
4XEY

>  <ChainId>
B

>  <ResidueNumber>
601

>  <InsertionCode>


>  <Model>
1

>  <AltIds>


>  <MissingHeavyAtoms>
0

>  <ObservedFormula>
C22 N7 O2 S Cl

>  <Name>
N-(2-CHLORO-6-METHYLPHENYL)-2-({6-[4-(2-HYDROXYETHYL)PIPERAZIN-1-YL]-2-METHYLPYRIMIDIN-4-YL}AMINO)-1,3-THIAZOLE-5-CARBOXAMIDE

>  <SystematicName>
N-(2-chloranyl-6-methyl-phenyl)-2-[[6-[4-(2-hydroxyethyl)piperazin-1-yl]-2-methyl-pyrimidin-4-yl]amino]-1,3-thiazole-5-carboxamide

>  <Synonyms>
Dasatinib

>  <Type>
NON-POLYMER

>  <Formula>
C22 H26 Cl N7 O2 S

>  <MolecularWeight>
488.006

>  <ModifiedDate>
2011-07-22

>  <Parent>


>  <OneLetterCode>


>  <SubcomponentList>


>  <AmbiguousFlag>
N

>  <InChI>
InChI=1S/C22H26ClN7O2S/c1-14-4-3-5-16(23)20(14)28-21(32)17-13-24-22(33-17)27-18-12-19(26-15(2)25-18)30-8-6-29(7-9-30)10-11-31/h3-5,12-13,31H,6-11H2,1-2H3,(H,28,32)(H,24,25,26,27)

>  <InChIKey>
ZBNZXTGUTAYRHI-UHFFFAOYSA-N

>  <SMILES>
Cc1cccc(c1NC(=O)c2cnc(s2)Nc3cc(nc(n3)C)N4CCN(CC4)CCO)Cl

$$$$
4XEY_1N1_A_601
  RCSB PDB12061716123D
Coordinates from PDB:4XEY:A:601 Model:1 without hydrogens
 33 36  0  0  0  0            999 V2000
  -15.9750  -31.8310   16.6950   C 0  0  0  0  0  0  0  0  0  0  0  0
  -14.6720  -32.3390   16.7630   C 0  0  0  0  0  0  0  0  0  0  0  0
  -13.6840  -32.7000   15.7070   C 0  0  0  0  0  0  0  0  0  0  0  0
  -17.2250  -32.6190   27.4620   N 0  0  0  0  0  0  0  0  0  0  0  0
  -11.1180  -33.5820   11.4380   C 0  0  0  0  0  0  0  0  0  0  0  0
  -12.1840  -34.4020   11.7970   C 0  0  0  0  0  0  0  0  0  0  0  0
  -13.1180  -34.0200   12.7750   C 0  0  0  0  0  0  0  0  0  0  0  0
  -14.2320  -34.9960   13.0690   C 0  0  0  0  0  0  0  0  0  0  0  0
  -15.6460  -32.3100   21.4020   C 0  0  0  0  0  0  0  0  0  0  0  0
  -16.2490  -32.1330   22.6300   C 0  0  0  0  0  0  0  0  0  0  0  0
  -15.5680  -32.6210   23.7500   C 0  0  0  0  0  0  0  0  0  0  0  0
  -13.8100  -33.3990   22.4750   C 0  0  0  0  0  0  0  0  0  0  0  0
  -12.4670  -34.0870   22.3750   C 0  0  0  0  0  0  0  0  0  0  0  0
  -17.0310  -31.4930   25.3120   C 0  0  0  0  0  0  0  0  0  0  0  0
  -15.4950  -33.4820   25.9880   C 0  0  0  0  0  0  0  0  0  0  0  0
  -17.8800  -32.4050   28.7480   C 0  0  0  0  0  0  0  0  0  0  0  0
  -17.4660  -31.0020   29.1670   C 0  0  0  0  0  0  0  0  0  0  0  0
  -16.2580  -31.8720   20.2470   N 0  0  0  0  0  0  0  0  0  0  0  0
  -15.7740  -32.0060   18.9750   C 0  0  0  0  0  0  0  0  0  0  0  0
  -16.5470  -31.6610   17.9280   N 0  0  0  0  0  0  0  0  0  0  0  0
  -14.1900  -32.6020   18.4410   S 0  0  0  0  0  0  0  0  0  0  0  0
  -13.9200  -32.4190   14.4100   N 0  0  0  0  0  0  0  0  0  0  0  0
  -13.0260  -32.8010   13.4330   C 0  0  0  0  0  0  0  0  0  0  0  0
  -11.9430  -31.9870   13.0660   C 0  0  0  0  0  0  0  0  0  0  0  0
  -11.0050  -32.3540   12.0880   C 0  0  0  0  0  0  0  0  0  0  0  0
  -11.7180  -30.3930   13.8430  Cl 0  0  0  0  0  0  0  0  0  0  0  0
  -12.6640  -33.2420   16.0930   O 0  0  0  0  0  0  0  0  0  0  0  0
  -14.3770  -33.2380   23.6790   N 0  0  0  0  0  0  0  0  0  0  0  0
  -14.4540  -32.9360   21.3760   N 0  0  0  0  0  0  0  0  0  0  0  0
  -16.0490  -32.5090   25.0210   N 0  0  0  0  0  0  0  0  0  0  0  0
  -17.9660  -32.1760   26.2790   C 0  0  0  0  0  0  0  0  0  0  0  0
  -15.8470  -33.0940   27.4160   C 0  0  0  0  0  0  0  0  0  0  0  0
  -18.5480  -30.1230   28.8000   O 0  0  0  0  0  0  0  0  0  0  0  0
  1  2  2  0  0  0  0
  1 20  1  0  0  0  0
  2  3  1  0  0  0  0
  2 21  1  0  0  0  0
  3 22  1  0  0  0  0
  3 27  2  0  0  0  0
  4 16  1  0  0  0  0
  4 31  1  0  0  0  0
  4 32  1  0  0  0  0
  5  6  2  0  0  0  0
  5 25  1  0  0  0  0
  6  7  1  0  0  0  0
  7  8  1  0  0  0  0
  7 23  2  0  0  0  0
  9 10  1  0  0  0  0
  9 18  1  0  0  0  0
  9 29  2  0  0  0  0
 10 11  2  0  0  0  0
 11 28  1  0  0  0  0
 11 30  1  0  0  0  0
 12 13  1  0  0  0  0
 12 28  2  0  0  0  0
 12 29  1  0  0  0  0
 14 30  1  0  0  0  0
 14 31  1  0  0  0  0
 15 30  1  0  0  0  0
 15 32  1  0  0  0  0
 16 17  1  0  0  0  0
 17 33  1  0  0  0  0
 18 19  1  0  0  0  0
 19 20  2  0  0  0  0
 19 21  1  0  0  0  0
 22 23  1  0  0  0  0
 23 24  1  0  0  0  0
 24 25  2  0  0  0  0
 24 26  1  0  0  0  0
A    1
C1
A    2
C2
A    3
C3
A    4
N6
A    5
C7
A    6
C8
A    7
C9
A    8
C10
A    9
C11
A   10
C12
A   11
C13
A   12
C14
A   13
C15
A   14
C16
A   15
C19
A   16
C20
A   17
C21
A   18
N
A   19
C
A   20
N1
A   21
S
A   22
N2
A   23
C4
A   24
C5
A   25
C6
A   26
CL
A   27
O
A   28
N3
A   29
N4
A   30
N5
A   31
C17
A   32
C18
A   33
O1
M  END
>  <InstanceId>
4XEY_1N1_A_601

>  <ChemCompId>
1N1

>  <PdbId>
4XEY

>  <ChainId>
A

>  <ResidueNumber>
601

>  <InsertionCode>


>  <Model>
1

>  <AltIds>


>  <MissingHeavyAtoms>
0

>  <ObservedFormula>
C22 N7 O2 S Cl

>  <Name>
N-(2-CHLORO-6-METHYLPHENYL)-2-({6-[4-(2-HYDROXYETHYL)PIPERAZIN-1-YL]-2-METHYLPYRIMIDIN-4-YL}AMINO)-1,3-THIAZOLE-5-CARBOXAMIDE

>  <SystematicName>
N-(2-chloranyl-6-methyl-phenyl)-2-[[6-[4-(2-hydroxyethyl)piperazin-1-yl]-2-methyl-pyrimidin-4-yl]amino]-1,3-thiazole-5-carboxamide

>  <Synonyms>
Dasatinib

>  <Type>
NON-POLYMER

>  <Formula>
C22 H26 Cl N7 O2 S

>  <MolecularWeight>
488.006

>  <ModifiedDate>
2011-07-22

>  <Parent>


>  <OneLetterCode>


>  <SubcomponentList>


>  <AmbiguousFlag>
N

>  <InChI>
InChI=1S/C22H26ClN7O2S/c1-14-4-3-5-16(23)20(14)28-21(32)17-13-24-22(33-17)27-18-12-19(26-15(2)25-18)30-8-6-29(7-9-30)10-11-31/h3-5,12-13,31H,6-11H2,1-2H3,(H,28,32)(H,24,25,26,27)

>  <InChIKey>
ZBNZXTGUTAYRHI-UHFFFAOYSA-N

>  <SMILES>
Cc1cccc(c1NC(=O)c2cnc(s2)Nc3cc(nc(n3)C)N4CCN(CC4)CCO)Cl

$$$$
