4YC8_4B7_A_601
  RCSB PDB12061716243D
Coordinates from PDB:4YC8:A:601 Model:1 without hydrogens
 35 39  0  0  0  0            999 V2000
   15.8720   46.7130    2.8050   O 0  0  0  0  0  0  0  0  0  0  0  0
   15.2110   46.1710    1.9200   C 0  0  0  0  0  0  0  0  0  0  0  0
   15.6070   45.0460    1.2510   N 0  0  0  0  0  0  0  0  0  0  0  0
   16.7060   44.2120    1.5480   C 0  0  0  0  0  0  0  0  0  0  0  0
   17.1300   43.3960    0.4910   C 0  0  0  0  0  0  0  0  0  0  0  0
   18.2540   42.6100    0.6050   C 0  0  0  0  0  0  0  0  0  0  0  0
   19.0100   42.6470    1.7820   C 0  0  0  0  0  0  0  0  0  0  0  0
   20.1590   41.8830    1.7620   O 0  0  0  0  0  0  0  0  0  0  0  0
   20.4310   41.1010    2.8790   C 0  0  0  0  0  0  0  0  0  0  0  0
   19.4700   40.1040    3.2530   C 0  0  0  0  0  0  0  0  0  0  0  0
   19.7310   39.3570    4.3970   C 0  0  0  0  0  0  0  0  0  0  0  0
   20.8820   39.5800    5.1470   C 0  0  0  0  0  0  0  0  0  0  0  0
   21.8100   40.5540    4.7670   C 0  0  0  0  0  0  0  0  0  0  0  0
   21.6000   41.3200    3.6250   C 0  0  0  0  0  0  0  0  0  0  0  0
   18.6160   43.4450    2.8490   C 0  0  0  0  0  0  0  0  0  0  0  0
   17.4700   44.2280    2.7330   C 0  0  0  0  0  0  0  0  0  0  0  0
   13.9950   46.8460    1.4370   C 0  0  0  0  0  0  0  0  0  0  0  0
   12.7810   46.3390    0.9970   C 0  0  0  0  0  0  0  0  0  0  0  0
   11.8280   47.3240    0.6900   N 0  0  0  0  0  0  0  0  0  0  0  0
   12.3950   48.5470    0.9100   C 0  0  0  0  0  0  0  0  0  0  0  0
   14.0090   48.4930    1.4730   S 0  0  0  0  0  0  0  0  0  0  0  0
   11.7140   49.7460    0.5860   N 0  0  0  0  0  0  0  0  0  0  0  0
   12.1980   51.0640    0.7470   C 0  0  0  0  0  0  0  0  0  0  0  0
   11.3880   52.1580    0.2760   C 0  0  0  0  0  0  0  0  0  0  0  0
   11.9680   53.4560    0.3210   C 0  0  0  0  0  0  0  0  0  0  0  0
   13.2460   53.6760    0.8220   N 0  0  0  0  0  0  0  0  0  0  0  0
   13.9440   52.5680    1.2730   C 0  0  0  0  0  0  0  0  0  0  0  0
   15.3650   52.8110    1.7470   C 0  0  0  0  0  0  0  0  0  0  0  0
   13.4730   51.2770    1.2690   N 0  0  0  0  0  0  0  0  0  0  0  0
   11.3280   54.6430   -0.1690   N 0  0  0  0  0  0  0  0  0  0  0  0
   11.8950   56.0140   -0.0530   C 0  0  0  0  0  0  0  0  0  0  0  0
   10.9700   56.8010    0.8680   C 0  0  0  0  0  0  0  0  0  0  0  0
    9.5990   56.8490    0.2690   N 0  0  0  0  0  0  0  0  0  0  0  0
    9.0780   55.4580    0.0900   C 0  0  0  0  0  0  0  0  0  0  0  0
   10.0100   54.6860   -0.8360   C 0  0  0  0  0  0  0  0  0  0  0  0
  6  5  2  0  0  0  0
  6  7  1  0  0  0  0
  5  4  1  0  0  0  0
  8  9  1  0  0  0  0
  8  7  1  0  0  0  0
 14  9  2  0  0  0  0
 14 13  1  0  0  0  0
  9 10  1  0  0  0  0
  7 15  2  0  0  0  0
 13 12  2  0  0  0  0
 10 11  2  0  0  0  0
 12 11  1  0  0  0  0
  4  3  1  0  0  0  0
  4 16  2  0  0  0  0
  3  2  1  0  0  0  0
 15 16  1  0  0  0  0
 18 17  2  0  0  0  0
 18 19  1  0  0  0  0
  2 17  1  0  0  0  0
  2  1  2  0  0  0  0
 17 21  1  0  0  0  0
 19 20  2  0  0  0  0
 20 21  1  0  0  0  0
 20 22  1  0  0  0  0
 22 23  1  0  0  0  0
 23 24  2  0  0  0  0
 23 29  1  0  0  0  0
 24 25  1  0  0  0  0
 29 27  2  0  0  0  0
 27 26  1  0  0  0  0
 27 28  1  0  0  0  0
 25 26  2  0  0  0  0
 25 30  1  0  0  0  0
 35 30  1  0  0  0  0
 35 34  1  0  0  0  0
 30 31  1  0  0  0  0
 31 32  1  0  0  0  0
 34 33  1  0  0  0  0
 32 33  1  0  0  0  0
A    1
O1
A    2
C1
A    3
N1
A    4
C2
A    5
C13
A    6
C12
A    7
C5
A    8
O2
A    9
C6
A   10
C11
A   11
C10
A   12
C9
A   13
C8
A   14
C7
A   15
C4
A   16
C3
A   17
C14
A   18
C15
A   19
N2
A   20
C16
A   21
S
A   22
N3
A   23
C17
A   24
C27
A   25
C20
A   26
N5
A   27
C18
A   28
C19
A   29
N4
A   30
N6
A   31
C26
A   32
C25
A   33
N7
A   34
C22
A   35
C21
M  END
>  <InstanceId>
4YC8_4B7_A_601

>  <ChemCompId>
4B7

>  <PdbId>
4YC8

>  <ChainId>
A

>  <ResidueNumber>
601

>  <InsertionCode>


>  <Model>
1

>  <AltIds>


>  <MissingHeavyAtoms>
3

>  <ObservedFormula>
C25 N7 O2 S

>  <Name>
2-({6-[4-(2-hydroxyethyl)piperazin-1-yl]-2-methylpyrimidin-4-yl}amino)-N-(4-phenoxyphenyl)-1,3-thiazole-5-carboxamide

>  <SystematicName>
2-[[6-[4-(2-hydroxyethyl)piperazin-1-yl]-2-methyl-pyrimidin-4-yl]amino]-N-(4-phenoxyphenyl)-1,3-thiazole-5-carboxamide

>  <Synonyms>


>  <Type>
NON-POLYMER

>  <Formula>
C27 H29 N7 O3 S

>  <MolecularWeight>
531.629

>  <ModifiedDate>
2016-02-26

>  <Parent>


>  <OneLetterCode>


>  <SubcomponentList>


>  <AmbiguousFlag>
N

>  <InChI>
InChI=1S/C27H29N7O3S/c1-19-29-24(17-25(30-19)34-13-11-33(12-14-34)15-16-35)32-27-28-18-23(38-27)26(36)31-20-7-9-22(10-8-20)37-21-5-3-2-4-6-21/h2-10,17-18,35H,11-16H2,1H3,(H,31,36)(H,28,29,30,32)

>  <InChIKey>
QUFCHHSHOLSVOT-UHFFFAOYSA-N

>  <SMILES>
Cc1nc(cc(n1)N2CCN(CC2)CCO)Nc3ncc(s3)C(=O)Nc4ccc(cc4)Oc5ccccc5

$$$$
4YC8_4B7_B_601
  RCSB PDB12061716243D
Coordinates from PDB:4YC8:B:601 Model:1 without hydrogens
 38 42  0  0  0  0            999 V2000
   44.3590   29.3460   17.8850   O 0  0  0  0  0  0  0  0  0  0  0  0
   43.5860   30.2080   17.4670   C 0  0  0  0  0  0  0  0  0  0  0  0
   43.8260   31.0000   16.3710   N 0  0  0  0  0  0  0  0  0  0  0  0
   44.8570   30.8880   15.4110   C 0  0  0  0  0  0  0  0  0  0  0  0
   45.1030   32.0660   14.6540   C 0  0  0  0  0  0  0  0  0  0  0  0
   46.1220   32.1230   13.7180   C 0  0  0  0  0  0  0  0  0  0  0  0
   46.9340   31.0060   13.5280   C 0  0  0  0  0  0  0  0  0  0  0  0
   47.9260   31.2280   12.6410   O 0  0  0  0  0  0  0  0  0  0  0  0
   48.1190   30.3320   11.6290   C 0  0  0  0  0  0  0  0  0  0  0  0
   49.4560   29.9150   11.4810   C 0  0  0  0  0  0  0  0  0  0  0  0
   49.7760   29.0530   10.4320   C 0  0  0  0  0  0  0  0  0  0  0  0
   48.7780   28.6180    9.5520   C 0  0  0  0  0  0  0  0  0  0  0  0
   47.4400   29.0320    9.7160   C 0  0  0  0  0  0  0  0  0  0  0  0
   47.0900   29.9000   10.7620   C 0  0  0  0  0  0  0  0  0  0  0  0
   46.7440   29.8250   14.2500   C 0  0  0  0  0  0  0  0  0  0  0  0
   45.7040   29.7640   15.2010   C 0  0  0  0  0  0  0  0  0  0  0  0
   42.3820   30.5160   18.2660   C 0  0  0  0  0  0  0  0  0  0  0  0
   41.1640   31.0790   17.9010   C 0  0  0  0  0  0  0  0  0  0  0  0
   40.2490   31.2060   18.9580   N 0  0  0  0  0  0  0  0  0  0  0  0
   40.8370   30.7420   20.0900   C 0  0  0  0  0  0  0  0  0  0  0  0
   42.4230   30.1290   19.8670   S 0  0  0  0  0  0  0  0  0  0  0  0
   40.2140   30.9150   21.3460   N 0  0  0  0  0  0  0  0  0  0  0  0
   40.7330   30.4940   22.6040   C 0  0  0  0  0  0  0  0  0  0  0  0
   40.0120   30.7610   23.8450   C 0  0  0  0  0  0  0  0  0  0  0  0
   40.6780   30.3850   25.0580   C 0  0  0  0  0  0  0  0  0  0  0  0
   41.9260   29.7520   25.0610   N 0  0  0  0  0  0  0  0  0  0  0  0
   42.5140   29.5420   23.8390   C 0  0  0  0  0  0  0  0  0  0  0  0
   43.8650   28.9000   23.8320   C 0  0  0  0  0  0  0  0  0  0  0  0
   41.9840   29.8770   22.6240   N 0  0  0  0  0  0  0  0  0  0  0  0
   40.2320   30.7340   26.3850   N 0  0  0  0  0  0  0  0  0  0  0  0
   38.9650   31.4100   26.7330   C 0  0  0  0  0  0  0  0  0  0  0  0
   38.1290   30.4500   27.5730   C 0  0  0  0  0  0  0  0  0  0  0  0
   38.8970   30.0220   28.7840   N 0  0  0  0  0  0  0  0  0  0  0  0
   40.2210   29.4540   28.3770   C 0  0  0  0  0  0  0  0  0  0  0  0
   41.0010   30.5050   27.6120   C 0  0  0  0  0  0  0  0  0  0  0  0
   38.1130   29.0360   29.6100   C 0  0  0  0  0  0  0  0  0  0  0  0
   38.4050   29.1650   31.0890   C 0  0  0  0  0  0  0  0  0  0  0  0
   39.7090   28.6750   31.4150   O 0  0  0  0  0  0  0  0  0  0  0  0
  6  5  2  0  0  0  0
  6  7  1  0  0  0  0
  5  4  1  0  0  0  0
  8  9  1  0  0  0  0
  8  7  1  0  0  0  0
 14  9  2  0  0  0  0
 14 13  1  0  0  0  0
  9 10  1  0  0  0  0
  7 15  2  0  0  0  0
 13 12  2  0  0  0  0
 10 11  2  0  0  0  0
 12 11  1  0  0  0  0
  4  3  1  0  0  0  0
  4 16  2  0  0  0  0
  3  2  1  0  0  0  0
 15 16  1  0  0  0  0
 18 17  2  0  0  0  0
 18 19  1  0  0  0  0
  2 17  1  0  0  0  0
  2  1  2  0  0  0  0
 17 21  1  0  0  0  0
 19 20  2  0  0  0  0
 20 21  1  0  0  0  0
 20 22  1  0  0  0  0
 22 23  1  0  0  0  0
 23 24  2  0  0  0  0
 23 29  1  0  0  0  0
 24 25  1  0  0  0  0
 29 27  2  0  0  0  0
 27 26  1  0  0  0  0
 27 28  1  0  0  0  0
 25 26  2  0  0  0  0
 25 30  1  0  0  0  0
 35 30  1  0  0  0  0
 35 34  1  0  0  0  0
 30 31  1  0  0  0  0
 31 32  1  0  0  0  0
 34 33  1  0  0  0  0
 32 33  1  0  0  0  0
 33 36  1  0  0  0  0
 36 37  1  0  0  0  0
 38 37  1  0  0  0  0
A    1
O1
A    2
C1
A    3
N1
A    4
C2
A    5
C13
A    6
C12
A    7
C5
A    8
O2
A    9
C6
A   10
C11
A   11
C10
A   12
C9
A   13
C8
A   14
C7
A   15
C4
A   16
C3
A   17
C14
A   18
C15
A   19
N2
A   20
C16
A   21
S
A   22
N3
A   23
C17
A   24
C27
A   25
C20
A   26
N5
A   27
C18
A   28
C19
A   29
N4
A   30
N6
A   31
C26
A   32
C25
A   33
N7
A   34
C22
A   35
C21
A   36
C23
A   37
C24
A   38
O3
M  END
>  <InstanceId>
4YC8_4B7_B_601

>  <ChemCompId>
4B7

>  <PdbId>
4YC8

>  <ChainId>
B

>  <ResidueNumber>
601

>  <InsertionCode>


>  <Model>
1

>  <AltIds>


>  <MissingHeavyAtoms>
0

>  <ObservedFormula>
C27 N7 O3 S

>  <Name>
2-({6-[4-(2-hydroxyethyl)piperazin-1-yl]-2-methylpyrimidin-4-yl}amino)-N-(4-phenoxyphenyl)-1,3-thiazole-5-carboxamide

>  <SystematicName>
2-[[6-[4-(2-hydroxyethyl)piperazin-1-yl]-2-methyl-pyrimidin-4-yl]amino]-N-(4-phenoxyphenyl)-1,3-thiazole-5-carboxamide

>  <Synonyms>


>  <Type>
NON-POLYMER

>  <Formula>
C27 H29 N7 O3 S

>  <MolecularWeight>
531.629

>  <ModifiedDate>
2016-02-26

>  <Parent>


>  <OneLetterCode>


>  <SubcomponentList>


>  <AmbiguousFlag>
N

>  <InChI>
InChI=1S/C27H29N7O3S/c1-19-29-24(17-25(30-19)34-13-11-33(12-14-34)15-16-35)32-27-28-18-23(38-27)26(36)31-20-7-9-22(10-8-20)37-21-5-3-2-4-6-21/h2-10,17-18,35H,11-16H2,1H3,(H,31,36)(H,28,29,30,32)

>  <InChIKey>
QUFCHHSHOLSVOT-UHFFFAOYSA-N

>  <SMILES>
Cc1nc(cc(n1)N2CCN(CC2)CCO)Nc3ncc(s3)C(=O)Nc4ccc(cc4)Oc5ccccc5

$$$$
