2HZ4_4ST_A_501
  RCSB PDB12061705513D
Coordinates from PDB:2HZ4:A:501 Model:1 without hydrogens
 35 42  0  0  0  0            999 V2000
   24.5600    4.7580   25.4650   C 0  0  0  0  0  0  0  0  0  0  0  0
   25.0800    5.0520   26.7580   O 0  0  0  0  0  0  0  0  0  0  0  0
   25.0820    4.0320   27.7760   C 0  0  0  0  0  0  0  0  0  0  0  0
   25.0900    4.7730   29.1140   C 0  0  0  0  0  0  0  0  0  0  0  0
   23.8280    5.5410   29.2760   N 0  0  0  0  0  0  0  0  0  0  0  0
   23.2360    5.8860   30.5830   C 0  0  0  0  0  0  0  0  0  0  0  0
   26.3850    5.6050   29.1340   C 0  0  0  0  0  0  0  0  0  0  0  0
   27.5350    4.6870   28.6540   C 0  0  0  0  0  0  0  0  0  0  0  0
   27.2650    3.2740   28.4590   O 0  0  0  0  0  0  0  0  0  0  0  0
   26.1590    2.8890   27.6240   C 0  0  0  0  0  0  0  0  0  0  0  0
   25.7670    1.5880   28.3540   C 0  0  0  0  0  0  0  0  0  0  0  0
   26.6590    2.6650   26.2470   N 0  0  0  0  0  0  0  0  0  0  0  0
   26.2510    1.7600   25.2350   C 0  0  0  0  0  0  0  0  0  0  0  0
   25.2550    0.7280   25.1860   C 0  0  0  0  0  0  0  0  0  0  0  0
   25.0630   -0.0780   24.0140   C 0  0  0  0  0  0  0  0  0  0  0  0
   25.8630    0.1510   22.8660   C 0  0  0  0  0  0  0  0  0  0  0  0
   26.8550    1.1730   22.9270   C 0  0  0  0  0  0  0  0  0  0  0  0
   27.0110    1.9350   24.1220   C 0  0  0  0  0  0  0  0  0  0  0  0
   27.9270    3.0020   24.3920   C 0  0  0  0  0  0  0  0  0  0  0  0
   27.6990    3.4580   25.7410   C 0  0  0  0  0  0  0  0  0  0  0  0
   28.4310    4.4750   26.2900   C 0  0  0  0  0  0  0  0  0  0  0  0
   28.3700    5.0960   27.5330   N 0  0  0  0  0  0  0  0  0  0  0  0
   29.3260    6.0820   27.6120   C 0  0  0  0  0  0  0  0  0  0  0  0
   29.6050    6.9680   28.8130   C 0  0  0  0  0  0  0  0  0  0  0  0
   30.2140    8.3110   28.3770   C 0  0  0  0  0  0  0  0  0  0  0  0
   31.4130    8.1240   27.4240   C 0  0  0  0  0  0  0  0  0  0  0  0
   31.1210    7.1740   26.2280   C 0  0  0  0  0  0  0  0  0  0  0  0
   30.0170    6.1670   26.4560   C 0  0  0  0  0  0  0  0  0  0  0  0
   29.4730    5.1610   25.5620   C 0  0  0  0  0  0  0  0  0  0  0  0
   29.6800    4.6970   24.2280   C 0  0  0  0  0  0  0  0  0  0  0  0
   28.9460    3.6500   23.6580   C 0  0  0  0  0  0  0  0  0  0  0  0
   29.3630    3.3680   22.2350   C 0  0  0  0  0  0  0  0  0  0  0  0
   30.4180    4.3800   22.1310   N 0  0  0  0  0  0  0  0  0  0  0  0
   30.6190    5.1420   23.2230   C 0  0  0  0  0  0  0  0  0  0  0  0
   31.4300    6.0540   23.3670   O 0  0  0  0  0  0  0  0  0  0  0  0
  1  2  1  0  0  0  0
  2  3  1  0  0  0  0
  3  4  1  0  0  0  0
  3 10  1  0  0  0  0
  4  5  1  0  0  0  0
  4  7  1  0  0  0  0
  5  6  1  0  0  0  0
  7  8  1  0  0  0  0
  8  9  1  0  0  0  0
  8 22  1  0  0  0  0
  9 10  1  0  0  0  0
 10 11  1  0  0  0  0
 10 12  1  0  0  0  0
 12 13  1  0  0  0  0
 12 20  1  0  0  0  0
 13 14  2  0  0  0  0
 13 18  1  0  0  0  0
 14 15  1  0  0  0  0
 15 16  2  0  0  0  0
 16 17  1  0  0  0  0
 17 18  2  0  0  0  0
 18 19  1  0  0  0  0
 19 20  2  0  0  0  0
 19 31  1  0  0  0  0
 20 21  1  0  0  0  0
 21 22  1  0  0  0  0
 21 29  2  0  0  0  0
 22 23  1  0  0  0  0
 23 24  1  0  0  0  0
 23 28  2  0  0  0  0
 24 25  1  0  0  0  0
 25 26  1  0  0  0  0
 26 27  1  0  0  0  0
 27 28  1  0  0  0  0
 28 29  1  0  0  0  0
 29 30  1  0  0  0  0
 30 31  2  0  0  0  0
 30 34  1  0  0  0  0
 31 32  1  0  0  0  0
 32 33  1  0  0  0  0
 33 34  1  0  0  0  0
 34 35  2  0  0  0  0
A    1
CAB
A    2
OAQ
A    3
CBF
A    4
CBD
A    5
NAO
A    6
CAA
A    7
CAN
A    8
CBE
A    9
OAR
A   10
CBI
A   11
CAC
A   12
NBH
A   13
CAY
A   14
CAH
A   15
CAF
A   16
CAE
A   17
CAG
A   18
CAX
A   19
CBA
A   20
CBC
A   21
CBB
A   22
NBG
A   23
CAV
A   24
CAL
A   25
CAJ
A   26
CAI
A   27
CAK
A   28
CAT
A   29
CAZ
A   30
CAW
A   31
CAU
A   32
CAM
A   33
NAP
A   34
CAS
A   35
OAD
M  END
>  <InstanceId>
2HZ4_4ST_A_501

>  <ChemCompId>
4ST

>  <PdbId>
2HZ4

>  <ChainId>
A

>  <ResidueNumber>
501

>  <InsertionCode>


>  <Model>
1

>  <AltIds>


>  <MissingHeavyAtoms>
0

>  <ObservedFormula>
C28 N4 O3

>  <Name>
1,2,3,4-TETRAHYDROGEN-STAUROSPORINE

>  <SystematicName>


>  <Synonyms>
AFN941

>  <Type>
NON-POLYMER

>  <Formula>
C28 H30 N4 O3

>  <MolecularWeight>
470.563

>  <ModifiedDate>
2011-06-04

>  <Parent>


>  <OneLetterCode>


>  <SubcomponentList>


>  <AmbiguousFlag>
N

>  <InChI>
InChI=1S/C28H30N4O3/c1-28-26(34-3)17(29-2)12-20(35-28)31-18-10-6-4-8-14(18)22-23-16(13-30-27(23)33)21-15-9-5-7-11-19(15)32(28)25(21)24(22)31/h5,7,9,11,17,20,26,29H,4,6,8,10,12-13H2,1-3H3,(H,30,33)/t17-,20-,26-,28+/m1/s1

>  <InChIKey>
KIZWKTROWIIMNN-FYTWVXJKSA-N

>  <SMILES>
C[C@@]12[C@@H]([C@@H](C[C@@H](O1)n3c4c(c5c3c6n2c7ccccc7c6c8c5C(=O)NC8)CCCC4)NC)OC

$$$$
2HZ4_4ST_B_501
  RCSB PDB12061705513D
Coordinates from PDB:2HZ4:B:501 Model:1 without hydrogens
 35 42  0  0  0  0            999 V2000
   51.8000   20.7080   60.3010   C 0  0  0  0  0  0  0  0  0  0  0  0
   51.8880   21.1950   61.6320   O 0  0  0  0  0  0  0  0  0  0  0  0
   52.8420   20.7700   62.6640   C 0  0  0  0  0  0  0  0  0  0  0  0
   54.3620   20.8480   62.3930   C 0  0  0  0  0  0  0  0  0  0  0  0
   54.7630   22.1900   61.9090   N 0  0  0  0  0  0  0  0  0  0  0  0
   56.1250   22.4990   61.4060   C 0  0  0  0  0  0  0  0  0  0  0  0
   54.7850   19.6650   61.5190   C 0  0  0  0  0  0  0  0  0  0  0  0
   54.2920   18.3730   62.2000   C 0  0  0  0  0  0  0  0  0  0  0  0
   53.5150   18.4610   63.4110   O 0  0  0  0  0  0  0  0  0  0  0  0
   52.4420   19.4480   63.4390   C 0  0  0  0  0  0  0  0  0  0  0  0
   52.3900   19.7150   64.9740   C 0  0  0  0  0  0  0  0  0  0  0  0
   51.1740   18.8600   62.9120   N 0  0  0  0  0  0  0  0  0  0  0  0
   49.8150   19.1290   63.2560   C 0  0  0  0  0  0  0  0  0  0  0  0
   49.2190   19.9780   64.2140   C 0  0  0  0  0  0  0  0  0  0  0  0
   47.8140   20.0220   64.3750   C 0  0  0  0  0  0  0  0  0  0  0  0
   46.9860   19.2190   63.5670   C 0  0  0  0  0  0  0  0  0  0  0  0
   47.5770   18.3610   62.6130   C 0  0  0  0  0  0  0  0  0  0  0  0
   48.9940   18.3480   62.5000   C 0  0  0  0  0  0  0  0  0  0  0  0
   49.8300   17.5590   61.6070   C 0  0  0  0  0  0  0  0  0  0  0  0
   51.2020   17.8960   61.8840   C 0  0  0  0  0  0  0  0  0  0  0  0
   52.2240   17.3210   61.1990   C 0  0  0  0  0  0  0  0  0  0  0  0
   53.5990   17.5050   61.2750   N 0  0  0  0  0  0  0  0  0  0  0  0
   54.2330   16.6970   60.3720   C 0  0  0  0  0  0  0  0  0  0  0  0
   55.7230   16.5810   60.1550   C 0  0  0  0  0  0  0  0  0  0  0  0
   56.0030   16.0720   58.7280   C 0  0  0  0  0  0  0  0  0  0  0  0
   55.1970   14.8090   58.3620   C 0  0  0  0  0  0  0  0  0  0  0  0
   53.6900   15.0140   58.5650   C 0  0  0  0  0  0  0  0  0  0  0  0
   53.3300   15.9860   59.6680   C 0  0  0  0  0  0  0  0  0  0  0  0
   52.0130   16.3520   60.1460   C 0  0  0  0  0  0  0  0  0  0  0  0
   50.6550   16.0100   59.8760   C 0  0  0  0  0  0  0  0  0  0  0  0
   49.6070   16.5980   60.5920   C 0  0  0  0  0  0  0  0  0  0  0  0
   48.2780   16.0880   60.1240   C 0  0  0  0  0  0  0  0  0  0  0  0
   48.7440   15.1600   59.0890   N 0  0  0  0  0  0  0  0  0  0  0  0
   50.0650   15.0760   58.9150   C 0  0  0  0  0  0  0  0  0  0  0  0
   50.6330   14.3530   58.1050   O 0  0  0  0  0  0  0  0  0  0  0  0
  1  2  1  0  0  0  0
  2  3  1  0  0  0  0
  3  4  1  0  0  0  0
  3 10  1  0  0  0  0
  4  5  1  0  0  0  0
  4  7  1  0  0  0  0
  5  6  1  0  0  0  0
  7  8  1  0  0  0  0
  8  9  1  0  0  0  0
  8 22  1  0  0  0  0
  9 10  1  0  0  0  0
 10 11  1  0  0  0  0
 10 12  1  0  0  0  0
 12 13  1  0  0  0  0
 12 20  1  0  0  0  0
 13 14  2  0  0  0  0
 13 18  1  0  0  0  0
 14 15  1  0  0  0  0
 15 16  2  0  0  0  0
 16 17  1  0  0  0  0
 17 18  2  0  0  0  0
 18 19  1  0  0  0  0
 19 20  2  0  0  0  0
 19 31  1  0  0  0  0
 20 21  1  0  0  0  0
 21 22  1  0  0  0  0
 21 29  2  0  0  0  0
 22 23  1  0  0  0  0
 23 24  1  0  0  0  0
 23 28  2  0  0  0  0
 24 25  1  0  0  0  0
 25 26  1  0  0  0  0
 26 27  1  0  0  0  0
 27 28  1  0  0  0  0
 28 29  1  0  0  0  0
 29 30  1  0  0  0  0
 30 31  2  0  0  0  0
 30 34  1  0  0  0  0
 31 32  1  0  0  0  0
 32 33  1  0  0  0  0
 33 34  1  0  0  0  0
 34 35  2  0  0  0  0
A    1
CAB
A    2
OAQ
A    3
CBF
A    4
CBD
A    5
NAO
A    6
CAA
A    7
CAN
A    8
CBE
A    9
OAR
A   10
CBI
A   11
CAC
A   12
NBH
A   13
CAY
A   14
CAH
A   15
CAF
A   16
CAE
A   17
CAG
A   18
CAX
A   19
CBA
A   20
CBC
A   21
CBB
A   22
NBG
A   23
CAV
A   24
CAL
A   25
CAJ
A   26
CAI
A   27
CAK
A   28
CAT
A   29
CAZ
A   30
CAW
A   31
CAU
A   32
CAM
A   33
NAP
A   34
CAS
A   35
OAD
M  END
>  <InstanceId>
2HZ4_4ST_B_501

>  <ChemCompId>
4ST

>  <PdbId>
2HZ4

>  <ChainId>
B

>  <ResidueNumber>
501

>  <InsertionCode>


>  <Model>
1

>  <AltIds>


>  <MissingHeavyAtoms>
0

>  <ObservedFormula>
C28 N4 O3

>  <Name>
1,2,3,4-TETRAHYDROGEN-STAUROSPORINE

>  <SystematicName>


>  <Synonyms>
AFN941

>  <Type>
NON-POLYMER

>  <Formula>
C28 H30 N4 O3

>  <MolecularWeight>
470.563

>  <ModifiedDate>
2011-06-04

>  <Parent>


>  <OneLetterCode>


>  <SubcomponentList>


>  <AmbiguousFlag>
N

>  <InChI>
InChI=1S/C28H30N4O3/c1-28-26(34-3)17(29-2)12-20(35-28)31-18-10-6-4-8-14(18)22-23-16(13-30-27(23)33)21-15-9-5-7-11-19(15)32(28)25(21)24(22)31/h5,7,9,11,17,20,26,29H,4,6,8,10,12-13H2,1-3H3,(H,30,33)/t17-,20-,26-,28+/m1/s1

>  <InChIKey>
KIZWKTROWIIMNN-FYTWVXJKSA-N

>  <SMILES>
C[C@@]12[C@@H]([C@@H](C[C@@H](O1)n3c4c(c5c3c6n2c7ccccc7c6c8c5C(=O)NC8)CCCC4)NC)OC

$$$$
2HZ4_4ST_C_501
  RCSB PDB12061705513D
Coordinates from PDB:2HZ4:C:501 Model:1 without hydrogens
 35 42  0  0  0  0            999 V2000
   49.0040   -1.3040    6.1390   C 0  0  0  0  0  0  0  0  0  0  0  0
   48.7470   -2.5480    5.4620   O 0  0  0  0  0  0  0  0  0  0  0  0
   47.8900   -2.6610    4.2870   C 0  0  0  0  0  0  0  0  0  0  0  0
   48.1090   -1.6880    3.0910   C 0  0  0  0  0  0  0  0  0  0  0  0
   49.5320   -1.6130    2.6930   N 0  0  0  0  0  0  0  0  0  0  0  0
   49.9910   -1.5530    1.2860   C 0  0  0  0  0  0  0  0  0  0  0  0
   47.4440   -0.3210    3.3490   C 0  0  0  0  0  0  0  0  0  0  0  0
   45.9730   -0.5540    3.7490   C 0  0  0  0  0  0  0  0  0  0  0  0
   45.5740   -1.9350    3.8670   O 0  0  0  0  0  0  0  0  0  0  0  0
   46.3620   -2.8960    4.6170   C 0  0  0  0  0  0  0  0  0  0  0  0
   45.7920   -4.1640    3.9060   C 0  0  0  0  0  0  0  0  0  0  0  0
   45.9420   -2.8070    6.0500   N 0  0  0  0  0  0  0  0  0  0  0  0
   45.9350   -3.8160    7.0360   C 0  0  0  0  0  0  0  0  0  0  0  0
   46.3240   -5.1930    6.9850   C 0  0  0  0  0  0  0  0  0  0  0  0
   46.2130   -6.0080    8.1300   C 0  0  0  0  0  0  0  0  0  0  0  0
   45.7190   -5.4540    9.3370   C 0  0  0  0  0  0  0  0  0  0  0  0
   45.3340   -4.0910    9.3800   C 0  0  0  0  0  0  0  0  0  0  0  0
   45.4580   -3.3130    8.2080   C 0  0  0  0  0  0  0  0  0  0  0  0
   45.1340   -1.9180    8.0170   C 0  0  0  0  0  0  0  0  0  0  0  0
   45.4460   -1.6160    6.6400   C 0  0  0  0  0  0  0  0  0  0  0  0
   45.2500   -0.3540    6.1600   C 0  0  0  0  0  0  0  0  0  0  0  0
   45.4830    0.1830    4.9080   N 0  0  0  0  0  0  0  0  0  0  0  0
   45.1150    1.5150    4.8930   C 0  0  0  0  0  0  0  0  0  0  0  0
   45.1840    2.4790    3.7210   C 0  0  0  0  0  0  0  0  0  0  0  0
   45.2650    3.9410    4.2120   C 0  0  0  0  0  0  0  0  0  0  0  0
   44.0990    4.2480    5.1620   C 0  0  0  0  0  0  0  0  0  0  0  0
   44.1950    3.3210    6.3910   C 0  0  0  0  0  0  0  0  0  0  0  0
   44.6630    1.9010    6.0980   C 0  0  0  0  0  0  0  0  0  0  0  0
   44.7280    0.7350    6.9600   C 0  0  0  0  0  0  0  0  0  0  0  0
   44.4170    0.4250    8.3070   C 0  0  0  0  0  0  0  0  0  0  0  0
   44.6150   -0.8530    8.8220   C 0  0  0  0  0  0  0  0  0  0  0  0
   44.2130   -0.8920   10.2740   C 0  0  0  0  0  0  0  0  0  0  0  0
   43.7940    0.5030   10.4460   N 0  0  0  0  0  0  0  0  0  0  0  0
   43.8970    1.2650    9.3670   C 0  0  0  0  0  0  0  0  0  0  0  0
   43.6010    2.4460    9.3010   O 0  0  0  0  0  0  0  0  0  0  0  0
  1  2  1  0  0  0  0
  2  3  1  0  0  0  0
  3  4  1  0  0  0  0
  3 10  1  0  0  0  0
  4  5  1  0  0  0  0
  4  7  1  0  0  0  0
  5  6  1  0  0  0  0
  7  8  1  0  0  0  0
  8  9  1  0  0  0  0
  8 22  1  0  0  0  0
  9 10  1  0  0  0  0
 10 11  1  0  0  0  0
 10 12  1  0  0  0  0
 12 13  1  0  0  0  0
 12 20  1  0  0  0  0
 13 14  2  0  0  0  0
 13 18  1  0  0  0  0
 14 15  1  0  0  0  0
 15 16  2  0  0  0  0
 16 17  1  0  0  0  0
 17 18  2  0  0  0  0
 18 19  1  0  0  0  0
 19 20  2  0  0  0  0
 19 31  1  0  0  0  0
 20 21  1  0  0  0  0
 21 22  1  0  0  0  0
 21 29  2  0  0  0  0
 22 23  1  0  0  0  0
 23 24  1  0  0  0  0
 23 28  2  0  0  0  0
 24 25  1  0  0  0  0
 25 26  1  0  0  0  0
 26 27  1  0  0  0  0
 27 28  1  0  0  0  0
 28 29  1  0  0  0  0
 29 30  1  0  0  0  0
 30 31  2  0  0  0  0
 30 34  1  0  0  0  0
 31 32  1  0  0  0  0
 32 33  1  0  0  0  0
 33 34  1  0  0  0  0
 34 35  2  0  0  0  0
A    1
CAB
A    2
OAQ
A    3
CBF
A    4
CBD
A    5
NAO
A    6
CAA
A    7
CAN
A    8
CBE
A    9
OAR
A   10
CBI
A   11
CAC
A   12
NBH
A   13
CAY
A   14
CAH
A   15
CAF
A   16
CAE
A   17
CAG
A   18
CAX
A   19
CBA
A   20
CBC
A   21
CBB
A   22
NBG
A   23
CAV
A   24
CAL
A   25
CAJ
A   26
CAI
A   27
CAK
A   28
CAT
A   29
CAZ
A   30
CAW
A   31
CAU
A   32
CAM
A   33
NAP
A   34
CAS
A   35
OAD
M  END
>  <InstanceId>
2HZ4_4ST_C_501

>  <ChemCompId>
4ST

>  <PdbId>
2HZ4

>  <ChainId>
C

>  <ResidueNumber>
501

>  <InsertionCode>


>  <Model>
1

>  <AltIds>


>  <MissingHeavyAtoms>
0

>  <ObservedFormula>
C28 N4 O3

>  <Name>
1,2,3,4-TETRAHYDROGEN-STAUROSPORINE

>  <SystematicName>


>  <Synonyms>
AFN941

>  <Type>
NON-POLYMER

>  <Formula>
C28 H30 N4 O3

>  <MolecularWeight>
470.563

>  <ModifiedDate>
2011-06-04

>  <Parent>


>  <OneLetterCode>


>  <SubcomponentList>


>  <AmbiguousFlag>
N

>  <InChI>
InChI=1S/C28H30N4O3/c1-28-26(34-3)17(29-2)12-20(35-28)31-18-10-6-4-8-14(18)22-23-16(13-30-27(23)33)21-15-9-5-7-11-19(15)32(28)25(21)24(22)31/h5,7,9,11,17,20,26,29H,4,6,8,10,12-13H2,1-3H3,(H,30,33)/t17-,20-,26-,28+/m1/s1

>  <InChIKey>
KIZWKTROWIIMNN-FYTWVXJKSA-N

>  <SMILES>
C[C@@]12[C@@H]([C@@H](C[C@@H](O1)n3c4c(c5c3c6n2c7ccccc7c6c8c5C(=O)NC8)CCCC4)NC)OC

$$$$
