5HU9_66K_A_601
  RCSB PDB12061718033D
Coordinates from PDB:5HU9:A:601 Model:1 without hydrogens
 43 47  0  0  0  0            999 V2000
   -9.5130  -22.4140  -12.3560   C 0  0  0  0  0  0  0  0  0  0  0  0
   -9.5020  -22.0520  -10.8820   C 0  0  0  0  0  0  0  0  0  0  0  0
  -10.5100  -21.0510  -10.6030   N 0  0  0  0  0  0  0  0  0  0  0  0
  -10.4890  -20.6870   -9.1870   C 0  0  0  0  0  0  0  0  0  0  0  0
  -11.8040  -21.4930  -11.0370   C 0  0  0  0  0  0  0  0  0  0  0  0
  -11.7990  -21.7950  -12.5000   C 0  0  0  0  0  0  0  0  0  0  0  0
  -10.7960  -22.7840  -12.8270   N 0  0  0  0  0  0  0  0  0  0  0  0
  -10.8850  -23.2120  -14.2260   C 0  0  0  0  0  0  0  0  0  0  0  0
  -10.0740  -24.2980  -14.5740   C 0  0  0  0  0  0  0  0  0  0  0  0
   -9.4030  -24.3610  -15.7840   C 0  0  0  0  0  0  0  0  0  0  0  0
   -9.5560  -23.2980  -16.7280   C 0  0  0  0  0  0  0  0  0  0  0  0
   -9.0010  -23.6630  -17.8780   F 0  0  0  0  0  0  0  0  0  0  0  0
   -8.9590  -22.2000  -16.2760   F 0  0  0  0  0  0  0  0  0  0  0  0
  -10.8490  -23.0530  -16.9170   F 0  0  0  0  0  0  0  0  0  0  0  0
   -8.5860  -25.4470  -16.0570   C 0  0  0  0  0  0  0  0  0  0  0  0
   -9.9070  -25.3590  -13.7020   C 0  0  0  0  0  0  0  0  0  0  0  0
   -9.0860  -26.4320  -14.0010   C 0  0  0  0  0  0  0  0  0  0  0  0
   -8.3960  -26.5280  -15.1850   C 0  0  0  0  0  0  0  0  0  0  0  0
   -7.5560  -27.6280  -15.4930   C 0  0  0  0  0  0  0  0  0  0  0  0
   -6.7040  -27.5270  -16.3220   O 0  0  0  0  0  0  0  0  0  0  0  0
   -7.6420  -28.7400  -14.7430   N 0  0  0  0  0  0  0  0  0  0  0  0
   -6.9550  -29.8590  -15.0270   C 0  0  0  0  0  0  0  0  0  0  0  0
   -5.7110  -29.9800  -15.6340   C 0  0  0  0  0  0  0  0  0  0  0  0
   -7.5860  -31.0480  -14.7400   C 0  0  0  0  0  0  0  0  0  0  0  0
   -6.9950  -32.2520  -15.0120   C 0  0  0  0  0  0  0  0  0  0  0  0
   -5.7740  -32.3520  -15.5820   C 0  0  0  0  0  0  0  0  0  0  0  0
   -5.2170  -33.5510  -15.8590   C 0  0  0  0  0  0  0  0  0  0  0  0
   -5.1120  -31.2090  -15.8940   C 0  0  0  0  0  0  0  0  0  0  0  0
   -3.9250  -31.4310  -16.4240   O 0  0  0  0  0  0  0  0  0  0  0  0
   -3.2460  -30.3720  -17.0680   C 0  0  0  0  0  0  0  0  0  0  0  0
   -3.8400  -30.0390  -18.3980   C 0  0  0  0  0  0  0  0  0  0  0  0
   -3.6400  -31.1250  -19.4260   C 0  0  0  0  0  0  0  0  0  0  0  0
   -1.8390  -30.6910  -17.2400   C 0  0  0  0  0  0  0  0  0  0  0  0
   -1.6210  -31.7570  -18.2770   C 0  0  0  0  0  0  0  0  0  0  0  0
   -2.2840  -31.5050  -19.5320   N 0  0  0  0  0  0  0  0  0  0  0  0
   -1.6810  -31.6380  -20.7230   C 0  0  0  0  0  0  0  0  0  0  0  0
   -2.2950  -31.4810  -21.7440   O 0  0  0  0  0  0  0  0  0  0  0  0
   -0.3120  -31.8670  -20.8330   C 0  0  0  0  0  0  0  0  0  0  0  0
    0.5930  -31.0860  -20.1630   C 0  0  0  0  0  0  0  0  0  0  0  0
    1.9320  -31.2180  -20.2350   C 0  0  0  0  0  0  0  0  0  0  0  0
    2.4680  -32.1620  -21.0420   C 0  0  0  0  0  0  0  0  0  0  0  0
    1.5810  -32.9290  -21.7570   N 0  0  0  0  0  0  0  0  0  0  0  0
    0.2360  -32.7850  -21.6750   C 0  0  0  0  0  0  0  0  0  0  0  0
 42 43  2  0  0  0  0
 42 41  1  0  0  0  0
 37 36  2  0  0  0  0
 43 38  1  0  0  0  0
 41 40  2  0  0  0  0
 38 36  1  0  0  0  0
 38 39  2  0  0  0  0
 36 35  1  0  0  0  0
 40 39  1  0  0  0  0
 35 32  1  0  0  0  0
 35 34  1  0  0  0  0
 32 31  1  0  0  0  0
 31 30  1  0  0  0  0
 34 33  1  0  0  0  0
 12 11  1  0  0  0  0
 33 30  1  0  0  0  0
 30 29  1  0  0  0  0
 14 11  1  0  0  0  0
 11 13  1  0  0  0  0
 11 10  1  0  0  0  0
 29 28  1  0  0  0  0
 20 19  2  0  0  0  0
 15 10  2  0  0  0  0
 15 18  1  0  0  0  0
 28 23  2  0  0  0  0
 28 26  1  0  0  0  0
 27 26  1  0  0  0  0
 10  9  1  0  0  0  0
 23 22  1  0  0  0  0
 26 25  2  0  0  0  0
 19 18  1  0  0  0  0
 19 21  1  0  0  0  0
 18 17  2  0  0  0  0
 22 21  1  0  0  0  0
 22 24  2  0  0  0  0
 25 24  1  0  0  0  0
  9  8  1  0  0  0  0
  9 16  2  0  0  0  0
  8  7  1  0  0  0  0
 17 16  1  0  0  0  0
  7  6  1  0  0  0  0
  7  1  1  0  0  0  0
  6  5  1  0  0  0  0
  1  2  1  0  0  0  0
  5  3  1  0  0  0  0
  2  3  1  0  0  0  0
  3  4  1  0  0  0  0
A    1
CAX
A    2
CAV
A    3
NBN
A    4
CAB
A    5
CAW
A    6
CAY
A    7
NBO
A    8
CAZ
A    9
CBJ
A   10
CBL
A   11
CBQ
A   12
FAF
A   13
FAG
A   14
FAE
A   15
CAQ
A   16
CAN
A   17
CAM
A   18
CBI
A   19
CBD
A   20
OAC
A   21
NBB
A   22
CBG
A   23
CAP
A   24
CAL
A   25
CAK
A   26
CBF
A   27
CAA
A   28
CBK
A   29
OBC
A   30
CBM
A   31
CAS
A   32
CAU
A   33
CAR
A   34
CAT
A   35
NBP
A   36
CBE
A   37
OAD
A   38
CBH
A   39
CAJ
A   40
CAH
A   41
CAI
A   42
NBA
A   43
CAO
M  END
>  <InstanceId>
5HU9_66K_A_601

>  <ChemCompId>
66K

>  <PdbId>
5HU9

>  <ChainId>
A

>  <ResidueNumber>
601

>  <InsertionCode>


>  <Model>
1

>  <AltIds>


>  <MissingHeavyAtoms>
0

>  <ObservedFormula>
C32 N5 O3 F3

>  <Name>
4-[(4-methylpiperazin-1-yl)methyl]-N-(4-methyl-3-{[1-(pyridin-3-ylcarbonyl)piperidin-4-yl]oxy}phenyl)-3-(trifluoromethyl)benzamide

>  <SystematicName>
4-[(4-methylpiperazin-1-yl)methyl]-~{N}-[4-methyl-3-(1-pyridin-3-ylcarbonylpiperidin-4-yl)oxy-phenyl]-3-(trifluoromethyl)benzamide

>  <Synonyms>


>  <Type>
NON-POLYMER

>  <Formula>
C32 H36 F3 N5 O3

>  <MolecularWeight>
595.655

>  <ModifiedDate>
2016-07-08

>  <Parent>


>  <OneLetterCode>


>  <SubcomponentList>


>  <AmbiguousFlag>
N

>  <InChI>
InChI=1S/C32H36F3N5O3/c1-22-5-8-26(19-29(22)43-27-9-12-40(13-10-27)31(42)24-4-3-11-36-20-24)37-30(41)23-6-7-25(28(18-23)32(33,34)35)21-39-16-14-38(2)15-17-39/h3-8,11,18-20,27H,9-10,12-17,21H2,1-2H3,(H,37,41)

>  <InChIKey>
CBLZTDLZCXMNCE-UHFFFAOYSA-N

>  <SMILES>
Cc1ccc(cc1OC2CCN(CC2)C(=O)c3cccnc3)NC(=O)c4ccc(c(c4)C(F)(F)F)CN5CCN(CC5)C

$$$$
5HU9_66K_A_602
  RCSB PDB12061718033D
Coordinates from PDB:5HU9:A:602 Model:1 without hydrogens
 43 47  0  0  0  0            999 V2000
    1.1450   -5.7450    3.7380   C 0  0  0  0  0  0  0  0  0  0  0  0
   -0.0760   -6.0970    4.5240   C 0  0  0  0  0  0  0  0  0  0  0  0
   -1.0180   -4.9790    4.6430   N 0  0  0  0  0  0  0  0  0  0  0  0
   -2.2760   -5.3380    5.3060   C 0  0  0  0  0  0  0  0  0  0  0  0
   -1.3230   -4.4170    3.3520   C 0  0  0  0  0  0  0  0  0  0  0  0
   -0.0800   -4.0030    2.6670   C 0  0  0  0  0  0  0  0  0  0  0  0
    0.8020   -5.1460    2.4680   N 0  0  0  0  0  0  0  0  0  0  0  0
    1.9250   -4.8980    1.6050   C 0  0  0  0  0  0  0  0  0  0  0  0
    2.6330   -5.9930    1.1650   C 0  0  0  0  0  0  0  0  0  0  0  0
    3.9910   -5.9480    1.1880   C 0  0  0  0  0  0  0  0  0  0  0  0
    4.6660   -4.8020    1.6920   C 0  0  0  0  0  0  0  0  0  0  0  0
    5.9450   -4.8540    1.3350   F 0  0  0  0  0  0  0  0  0  0  0  0
    4.5770   -4.7750    3.0180   F 0  0  0  0  0  0  0  0  0  0  0  0
    4.1090   -3.7060    1.1880   F 0  0  0  0  0  0  0  0  0  0  0  0
    4.7160   -7.0490    0.7290   C 0  0  0  0  0  0  0  0  0  0  0  0
    1.9830   -7.0990    0.6710   C 0  0  0  0  0  0  0  0  0  0  0  0
    2.7580   -8.1810    0.2400   C 0  0  0  0  0  0  0  0  0  0  0  0
    4.1120   -8.1840    0.2430   C 0  0  0  0  0  0  0  0  0  0  0  0
    4.8870   -9.2820   -0.1880   C 0  0  0  0  0  0  0  0  0  0  0  0
    6.0040   -9.0830   -0.5620   O 0  0  0  0  0  0  0  0  0  0  0  0
    4.2990  -10.5000   -0.0910   N 0  0  0  0  0  0  0  0  0  0  0  0
    4.9030  -11.6680   -0.3570   C 0  0  0  0  0  0  0  0  0  0  0  0
    4.3080  -12.8440    0.0700   C 0  0  0  0  0  0  0  0  0  0  0  0
    6.1220  -11.7820   -0.9730   C 0  0  0  0  0  0  0  0  0  0  0  0
    6.6980  -13.0250   -1.1560   C 0  0  0  0  0  0  0  0  0  0  0  0
    6.0760  -14.1760   -0.7380   C 0  0  0  0  0  0  0  0  0  0  0  0
    6.6830  -15.4170   -0.9730   C 0  0  0  0  0  0  0  0  0  0  0  0
    4.8800  -14.0900   -0.1180   C 0  0  0  0  0  0  0  0  0  0  0  0
    4.3120  -15.2330    0.2670   O 0  0  0  0  0  0  0  0  0  0  0  0
    3.1810  -15.2090    1.0320   C 0  0  0  0  0  0  0  0  0  0  0  0
    3.0530  -16.5140    1.8750   C 0  0  0  0  0  0  0  0  0  0  0  0
    1.7380  -16.6100    2.6150   C 0  0  0  0  0  0  0  0  0  0  0  0
    1.9880  -15.1510    0.1440   C 0  0  0  0  0  0  0  0  0  0  0  0
    0.7330  -15.2470    0.9210   C 0  0  0  0  0  0  0  0  0  0  0  0
    0.6470  -16.4880    1.6830   N 0  0  0  0  0  0  0  0  0  0  0  0
   -0.1960  -17.4700    1.3870   C 0  0  0  0  0  0  0  0  0  0  0  0
   -1.0210  -17.3910    0.5260   O 0  0  0  0  0  0  0  0  0  0  0  0
   -0.2440  -18.6490    2.1000   C 0  0  0  0  0  0  0  0  0  0  0  0
   -0.5060  -18.6530    3.4360   C 0  0  0  0  0  0  0  0  0  0  0  0
   -0.6200  -19.8410    4.1290   C 0  0  0  0  0  0  0  0  0  0  0  0
   -0.4770  -21.0350    3.4730   C 0  0  0  0  0  0  0  0  0  0  0  0
   -0.2240  -21.0350    2.1110   N 0  0  0  0  0  0  0  0  0  0  0  0
   -0.1370  -19.8370    1.4370   C 0  0  0  0  0  0  0  0  0  0  0  0
 42 43  2  0  0  0  0
 42 41  1  0  0  0  0
 37 36  2  0  0  0  0
 43 38  1  0  0  0  0
 41 40  2  0  0  0  0
 38 36  1  0  0  0  0
 38 39  2  0  0  0  0
 36 35  1  0  0  0  0
 40 39  1  0  0  0  0
 35 32  1  0  0  0  0
 35 34  1  0  0  0  0
 32 31  1  0  0  0  0
 31 30  1  0  0  0  0
 34 33  1  0  0  0  0
 12 11  1  0  0  0  0
 33 30  1  0  0  0  0
 30 29  1  0  0  0  0
 14 11  1  0  0  0  0
 11 13  1  0  0  0  0
 11 10  1  0  0  0  0
 29 28  1  0  0  0  0
 20 19  2  0  0  0  0
 15 10  2  0  0  0  0
 15 18  1  0  0  0  0
 28 23  2  0  0  0  0
 28 26  1  0  0  0  0
 27 26  1  0  0  0  0
 10  9  1  0  0  0  0
 23 22  1  0  0  0  0
 26 25  2  0  0  0  0
 19 18  1  0  0  0  0
 19 21  1  0  0  0  0
 18 17  2  0  0  0  0
 22 21  1  0  0  0  0
 22 24  2  0  0  0  0
 25 24  1  0  0  0  0
  9  8  1  0  0  0  0
  9 16  2  0  0  0  0
  8  7  1  0  0  0  0
 17 16  1  0  0  0  0
  7  6  1  0  0  0  0
  7  1  1  0  0  0  0
  6  5  1  0  0  0  0
  1  2  1  0  0  0  0
  5  3  1  0  0  0  0
  2  3  1  0  0  0  0
  3  4  1  0  0  0  0
A    1
CAX
A    2
CAV
A    3
NBN
A    4
CAB
A    5
CAW
A    6
CAY
A    7
NBO
A    8
CAZ
A    9
CBJ
A   10
CBL
A   11
CBQ
A   12
FAF
A   13
FAG
A   14
FAE
A   15
CAQ
A   16
CAN
A   17
CAM
A   18
CBI
A   19
CBD
A   20
OAC
A   21
NBB
A   22
CBG
A   23
CAP
A   24
CAL
A   25
CAK
A   26
CBF
A   27
CAA
A   28
CBK
A   29
OBC
A   30
CBM
A   31
CAS
A   32
CAU
A   33
CAR
A   34
CAT
A   35
NBP
A   36
CBE
A   37
OAD
A   38
CBH
A   39
CAJ
A   40
CAH
A   41
CAI
A   42
NBA
A   43
CAO
M  END
>  <InstanceId>
5HU9_66K_A_602

>  <ChemCompId>
66K

>  <PdbId>
5HU9

>  <ChainId>
A

>  <ResidueNumber>
602

>  <InsertionCode>


>  <Model>
1

>  <AltIds>


>  <MissingHeavyAtoms>
0

>  <ObservedFormula>
C32 N5 O3 F3

>  <Name>
4-[(4-methylpiperazin-1-yl)methyl]-N-(4-methyl-3-{[1-(pyridin-3-ylcarbonyl)piperidin-4-yl]oxy}phenyl)-3-(trifluoromethyl)benzamide

>  <SystematicName>
4-[(4-methylpiperazin-1-yl)methyl]-~{N}-[4-methyl-3-(1-pyridin-3-ylcarbonylpiperidin-4-yl)oxy-phenyl]-3-(trifluoromethyl)benzamide

>  <Synonyms>


>  <Type>
NON-POLYMER

>  <Formula>
C32 H36 F3 N5 O3

>  <MolecularWeight>
595.655

>  <ModifiedDate>
2016-07-08

>  <Parent>


>  <OneLetterCode>


>  <SubcomponentList>


>  <AmbiguousFlag>
N

>  <InChI>
InChI=1S/C32H36F3N5O3/c1-22-5-8-26(19-29(22)43-27-9-12-40(13-10-27)31(42)24-4-3-11-36-20-24)37-30(41)23-6-7-25(28(18-23)32(33,34)35)21-39-16-14-38(2)15-17-39/h3-8,11,18-20,27H,9-10,12-17,21H2,1-2H3,(H,37,41)

>  <InChIKey>
CBLZTDLZCXMNCE-UHFFFAOYSA-N

>  <SMILES>
Cc1ccc(cc1OC2CCN(CC2)C(=O)c3cccnc3)NC(=O)c4ccc(c(c4)C(F)(F)F)CN5CCN(CC5)C

$$$$
