2G2I_ADP_A_820
  RCSB PDB12061705383D
Coordinates from PDB:2G2I:A:820 Model:1 without hydrogens
 27 29  0  0  0  0            999 V2000
  -10.8210  -31.2850  -21.4030   P 0  0  0  0  0  0  0  0  0  0  0  0
  -10.8310  -31.3540  -19.9090   O 0  0  0  0  0  0  0  0  0  0  0  0
  -10.1070  -32.6240  -21.9740   O 0  0  0  0  0  0  0  0  0  0  0  0
   -9.9930  -29.9910  -21.8890   O 0  0  0  0  0  0  0  0  0  0  0  0
  -13.1820  -29.8850  -21.4990   P 0  0  0  0  0  0  0  0  0  0  0  0
  -13.5080  -29.0560  -22.6890   O 0  0  0  0  0  0  0  0  0  0  0  0
  -14.5630  -30.3210  -20.7520   O 0  0  0  0  0  0  0  0  0  0  0  0
  -12.3510  -31.2130  -21.9970   O 0  0  0  0  0  0  0  0  0  0  0  0
  -12.2710  -28.9930  -20.5110   O 0  0  0  0  0  0  0  0  0  0  0  0
  -13.1260  -28.2130  -19.6460   C 0  0  0  0  0  0  0  0  0  0  0  0
  -12.2910  -27.2600  -18.7500   C 0  0  0  0  0  0  0  0  0  0  0  0
  -13.1300  -26.7790  -17.6880   O 0  0  0  0  0  0  0  0  0  0  0  0
  -11.0910  -27.9670  -18.0750   C 0  0  0  0  0  0  0  0  0  0  0  0
   -9.8650  -27.5940  -18.7050   O 0  0  0  0  0  0  0  0  0  0  0  0
  -11.1190  -27.5340  -16.6150   C 0  0  0  0  0  0  0  0  0  0  0  0
   -9.8930  -26.8800  -16.2520   O 0  0  0  0  0  0  0  0  0  0  0  0
  -12.3130  -26.5870  -16.5140   C 0  0  0  0  0  0  0  0  0  0  0  0
  -13.0980  -26.8560  -15.3070   N 0  0  0  0  0  0  0  0  0  0  0  0
  -14.0960  -27.7810  -15.1590   C 0  0  0  0  0  0  0  0  0  0  0  0
  -14.5760  -27.7360  -13.9530   N 0  0  0  0  0  0  0  0  0  0  0  0
  -13.9220  -26.7880  -13.2510   C 0  0  0  0  0  0  0  0  0  0  0  0
  -13.9990  -26.2880  -11.9250   C 0  0  0  0  0  0  0  0  0  0  0  0
  -14.9210  -26.8190  -11.0280   N 0  0  0  0  0  0  0  0  0  0  0  0
  -13.1540  -25.2940  -11.5550   N 0  0  0  0  0  0  0  0  0  0  0  0
  -12.2590  -24.7760  -12.4080   C 0  0  0  0  0  0  0  0  0  0  0  0
  -12.1600  -25.2200  -13.6590   N 0  0  0  0  0  0  0  0  0  0  0  0
  -12.9630  -26.2080  -14.1160   C 0  0  0  0  0  0  0  0  0  0  0  0
  1  2  2  0  0  0  0
  1  3  1  0  0  0  0
  1  4  1  0  0  0  0
  1  8  1  0  0  0  0
  5  6  2  0  0  0  0
  5  7  1  0  0  0  0
  5  8  1  0  0  0  0
  5  9  1  0  0  0  0
  9 10  1  0  0  0  0
 10 11  1  0  0  0  0
 11 12  1  0  0  0  0
 11 13  1  0  0  0  0
 12 17  1  0  0  0  0
 13 14  1  0  0  0  0
 13 15  1  0  0  0  0
 15 16  1  0  0  0  0
 15 17  1  0  0  0  0
 17 18  1  0  0  0  0
 18 19  1  0  0  0  0
 18 27  1  0  0  0  0
 19 20  2  0  0  0  0
 20 21  1  0  0  0  0
 21 22  1  0  0  0  0
 21 27  2  0  0  0  0
 22 23  1  0  0  0  0
 22 24  2  0  0  0  0
 24 25  1  0  0  0  0
 25 26  2  0  0  0  0
 26 27  1  0  0  0  0
A    1
PB
A    2
O1B
A    3
O2B
A    4
O3B
A    5
PA
A    6
O1A
A    7
O2A
A    8
O3A
A    9
O5'
A   10
C5'
A   11
C4'
A   12
O4'
A   13
C3'
A   14
O3'
A   15
C2'
A   16
O2'
A   17
C1'
A   18
N9
A   19
C8
A   20
N7
A   21
C5
A   22
C6
A   23
N6
A   24
N1
A   25
C2
A   26
N3
A   27
C4
M  END
>  <InstanceId>
2G2I_ADP_A_820

>  <ChemCompId>
ADP

>  <PdbId>
2G2I

>  <ChainId>
A

>  <ResidueNumber>
820

>  <InsertionCode>


>  <Model>
1

>  <AltIds>


>  <MissingHeavyAtoms>
0

>  <ObservedFormula>
C10 N5 O10 P2

>  <Name>
ADENOSINE-5'-DIPHOSPHATE

>  <SystematicName>
[(2R,3S,4R,5R)-5-(6-aminopurin-9-yl)-3,4-dihydroxy-oxolan-2-yl]methyl phosphono hydrogen phosphate

>  <Synonyms>


>  <Type>
NON-POLYMER

>  <Formula>
C10 H15 N5 O10 P2

>  <MolecularWeight>
427.201

>  <ModifiedDate>
2011-06-04

>  <Parent>
A

>  <OneLetterCode>


>  <SubcomponentList>


>  <AmbiguousFlag>
N

>  <InChI>
InChI=1S/C10H15N5O10P2/c11-8-5-9(13-2-12-8)15(3-14-5)10-7(17)6(16)4(24-10)1-23-27(21,22)25-26(18,19)20/h2-4,6-7,10,16-17H,1H2,(H,21,22)(H2,11,12,13)(H2,18,19,20)/t4-,6-,7-,10-/m1/s1

>  <InChIKey>
XTWYTFMLZFPYCI-KQYNXXCUSA-N

>  <SMILES>
c1nc(c2c(n1)n(cn2)[C@H]3[C@@H]([C@@H]([C@H](O3)CO[P@](=O)(O)OP(=O)(O)O)O)O)N

$$$$
2G2I_ADP_B_821
  RCSB PDB12061705383D
Coordinates from PDB:2G2I:B:821 Model:1 without hydrogens
 27 29  0  0  0  0            999 V2000
   -1.0430  -15.8700   23.5600   P 0  0  0  0  0  0  0  0  0  0  0  0
   -1.0680  -16.6290   22.2770   O 0  0  0  0  0  0  0  0  0  0  0  0
    0.0320  -16.5930   24.5290   O 0  0  0  0  0  0  0  0  0  0  0  0
   -2.5220  -15.8750   24.2280   O 0  0  0  0  0  0  0  0  0  0  0  0
   -1.5510  -13.4520   22.3960   P 0  0  0  0  0  0  0  0  0  0  0  0
   -2.0890  -12.3360   23.2040   O 0  0  0  0  0  0  0  0  0  0  0  0
   -0.7340  -12.8070   21.1430   O 0  0  0  0  0  0  0  0  0  0  0  0
   -0.5480  -14.3360   23.3350   O 0  0  0  0  0  0  0  0  0  0  0  0
   -2.8020  -14.3380   21.8930   O 0  0  0  0  0  0  0  0  0  0  0  0
   -2.5770  -14.6560   20.5150   C 0  0  0  0  0  0  0  0  0  0  0  0
   -3.8570  -15.1330   19.8470   C 0  0  0  0  0  0  0  0  0  0  0  0
   -4.2200  -14.1570   18.8330   O 0  0  0  0  0  0  0  0  0  0  0  0
   -3.6110  -16.4870   19.1630   C 0  0  0  0  0  0  0  0  0  0  0  0
   -4.4100  -17.5100   19.7360   O 0  0  0  0  0  0  0  0  0  0  0  0
   -3.9170  -16.2790   17.6830   C 0  0  0  0  0  0  0  0  0  0  0  0
   -4.9350  -17.1680   17.2110   O 0  0  0  0  0  0  0  0  0  0  0  0
   -4.3400  -14.8140   17.5370   C 0  0  0  0  0  0  0  0  0  0  0  0
   -3.4990  -14.1820   16.4990   N 0  0  0  0  0  0  0  0  0  0  0  0
   -2.2630  -13.6170   16.6520   C 0  0  0  0  0  0  0  0  0  0  0  0
   -1.8310  -13.1690   15.5100   N 0  0  0  0  0  0  0  0  0  0  0  0
   -2.7510  -13.4020   14.5520   C 0  0  0  0  0  0  0  0  0  0  0  0
   -2.8380  -13.1570   13.1460   C 0  0  0  0  0  0  0  0  0  0  0  0
   -1.8100  -12.5220   12.4730   N 0  0  0  0  0  0  0  0  0  0  0  0
   -3.9490  -13.5470   12.4850   N 0  0  0  0  0  0  0  0  0  0  0  0
   -4.9590  -14.1650   13.1110   C 0  0  0  0  0  0  0  0  0  0  0  0
   -4.9120  -14.4180   14.4240   N 0  0  0  0  0  0  0  0  0  0  0  0
   -3.8380  -14.0590   15.1700   C 0  0  0  0  0  0  0  0  0  0  0  0
  1  2  2  0  0  0  0
  1  3  1  0  0  0  0
  1  4  1  0  0  0  0
  1  8  1  0  0  0  0
  5  6  2  0  0  0  0
  5  7  1  0  0  0  0
  5  8  1  0  0  0  0
  5  9  1  0  0  0  0
  9 10  1  0  0  0  0
 10 11  1  0  0  0  0
 11 12  1  0  0  0  0
 11 13  1  0  0  0  0
 12 17  1  0  0  0  0
 13 14  1  0  0  0  0
 13 15  1  0  0  0  0
 15 16  1  0  0  0  0
 15 17  1  0  0  0  0
 17 18  1  0  0  0  0
 18 19  1  0  0  0  0
 18 27  1  0  0  0  0
 19 20  2  0  0  0  0
 20 21  1  0  0  0  0
 21 22  1  0  0  0  0
 21 27  2  0  0  0  0
 22 23  1  0  0  0  0
 22 24  2  0  0  0  0
 24 25  1  0  0  0  0
 25 26  2  0  0  0  0
 26 27  1  0  0  0  0
A    1
PB
A    2
O1B
A    3
O2B
A    4
O3B
A    5
PA
A    6
O1A
A    7
O2A
A    8
O3A
A    9
O5'
A   10
C5'
A   11
C4'
A   12
O4'
A   13
C3'
A   14
O3'
A   15
C2'
A   16
O2'
A   17
C1'
A   18
N9
A   19
C8
A   20
N7
A   21
C5
A   22
C6
A   23
N6
A   24
N1
A   25
C2
A   26
N3
A   27
C4
M  END
>  <InstanceId>
2G2I_ADP_B_821

>  <ChemCompId>
ADP

>  <PdbId>
2G2I

>  <ChainId>
B

>  <ResidueNumber>
821

>  <InsertionCode>


>  <Model>
1

>  <AltIds>


>  <MissingHeavyAtoms>
0

>  <ObservedFormula>
C10 N5 O10 P2

>  <Name>
ADENOSINE-5'-DIPHOSPHATE

>  <SystematicName>
[(2R,3S,4R,5R)-5-(6-aminopurin-9-yl)-3,4-dihydroxy-oxolan-2-yl]methyl phosphono hydrogen phosphate

>  <Synonyms>


>  <Type>
NON-POLYMER

>  <Formula>
C10 H15 N5 O10 P2

>  <MolecularWeight>
427.201

>  <ModifiedDate>
2011-06-04

>  <Parent>
A

>  <OneLetterCode>


>  <SubcomponentList>


>  <AmbiguousFlag>
N

>  <InChI>
InChI=1S/C10H15N5O10P2/c11-8-5-9(13-2-12-8)15(3-14-5)10-7(17)6(16)4(24-10)1-23-27(21,22)25-26(18,19)20/h2-4,6-7,10,16-17H,1H2,(H,21,22)(H2,11,12,13)(H2,18,19,20)/t4-,6-,7-,10-/m1/s1

>  <InChIKey>
XTWYTFMLZFPYCI-KQYNXXCUSA-N

>  <SMILES>
c1nc(c2c(n1)n(cn2)[C@H]3[C@@H]([C@@H]([C@H](O3)CO[P@](=O)(O)OP(=O)(O)O)O)O)N

$$$$
