4GBR_CAU_A_500
  RCSB PDB12061712413D
Coordinates from PDB:4GBR:A:500 Model:1 without hydrogens
 22 24  0  0  0  0            999 V2000
   10.0100   15.7020   46.5190   O 0  0  0  0  0  0  0  0  0  0  0  0
   11.1680   16.0610   47.1360   C 0  0  0  0  0  0  0  0  0  0  0  0
   11.1870   15.3050   48.4660   C 0  0  0  0  0  0  0  0  0  0  0  0
   10.3250   14.0920   48.5880   N 0  0  0  0  0  0  0  0  0  0  0  0
   10.1650   13.7590   49.9980   C 0  0  0  0  0  0  0  0  0  0  0  0
   10.5370   12.3260   50.3400   C 0  0  0  0  0  0  0  0  0  0  0  0
    8.8550   14.2060   50.5830   C 0  0  0  0  0  0  0  0  0  0  0  0
   12.3290   15.8090   46.1500   C 0  0  0  0  0  0  0  0  0  0  0  0
   13.5440   15.4440   46.7140   O 0  0  0  0  0  0  0  0  0  0  0  0
   14.7240   15.6330   46.0320   C 0  0  0  0  0  0  0  0  0  0  0  0
   14.8430   15.2610   44.6690   C 0  0  0  0  0  0  0  0  0  0  0  0
   16.0620   15.4600   43.9860   C 0  0  0  0  0  0  0  0  0  0  0  0
   17.1760   16.0300   44.6500   C 0  0  0  0  0  0  0  0  0  0  0  0
   17.0540   16.3980   46.0080   C 0  0  0  0  0  0  0  0  0  0  0  0
   15.8410   16.2000   46.6890   C 0  0  0  0  0  0  0  0  0  0  0  0
   18.0290   16.9820   46.8740   N 0  0  0  0  0  0  0  0  0  0  0  0
   17.3940   17.1490   48.1340   C 0  0  0  0  0  0  0  0  0  0  0  0
   16.0800   16.6980   48.0820   C 0  0  0  0  0  0  0  0  0  0  0  0
   17.9360   17.6760   49.2870   C 0  0  0  0  0  0  0  0  0  0  0  0
   17.0970   17.7390   50.4210   C 0  0  0  0  0  0  0  0  0  0  0  0
   15.7520   17.2770   50.3700   C 0  0  0  0  0  0  0  0  0  0  0  0
   15.2230   16.7520   49.2070   C 0  0  0  0  0  0  0  0  0  0  0  0
 13 12  2  0  0  0  0
 13 14  1  0  0  0  0
 12 11  1  0  0  0  0
 14 16  1  0  0  0  0
 14 15  2  0  0  0  0
 16 17  1  0  0  0  0
 11 10  2  0  0  0  0
  6  5  1  0  0  0  0
 15 10  1  0  0  0  0
 15 18  1  0  0  0  0
 10  9  1  0  0  0  0
 17 18  2  0  0  0  0
 17 19  1  0  0  0  0
 18 22  1  0  0  0  0
 19 20  2  0  0  0  0
  9  8  1  0  0  0  0
  3  4  1  0  0  0  0
  3  2  1  0  0  0  0
  8  2  1  0  0  0  0
  5  4  1  0  0  0  0
  5  7  1  0  0  0  0
 22 21  2  0  0  0  0
 20 21  1  0  0  0  0
  2  1  1  0  0  0  0
A    1
O17
A    2
C16
A    3
C18
A    4
N19
A    5
C20
A    6
C21
A    7
C22
A    8
C15
A    9
O14
A   10
C13
A   11
C12
A   12
C11
A   13
C10
A   14
C8
A   15
C9
A   16
N7
A   17
C3
A   18
C4
A   19
C2
A   20
C1
A   21
C6
A   22
C5
M  END
>  <InstanceId>
4GBR_CAU_A_500

>  <ChemCompId>
CAU

>  <PdbId>
4GBR

>  <ChainId>
A

>  <ResidueNumber>
500

>  <InsertionCode>


>  <Model>
1

>  <AltIds>


>  <MissingHeavyAtoms>
0

>  <ObservedFormula>
C18 N2 O2

>  <Name>
(2S)-1-(9H-Carbazol-4-yloxy)-3-(isopropylamino)propan-2-ol

>  <SystematicName>
(2S)-1-(9H-carbazol-4-yloxy)-3-(propan-2-ylamino)propan-2-ol

>  <Synonyms>
(S)-Carazolol

>  <Type>
NON-POLYMER

>  <Formula>
C18 H22 N2 O2

>  <MolecularWeight>
298.379

>  <ModifiedDate>
2011-06-04

>  <Parent>


>  <OneLetterCode>


>  <SubcomponentList>


>  <AmbiguousFlag>
N

>  <InChI>
InChI=1S/C18H22N2O2/c1-12(2)19-10-13(21)11-22-17-9-5-8-16-18(17)14-6-3-4-7-15(14)20-16/h3-9,12-13,19-21H,10-11H2,1-2H3/t13-/m0/s1

>  <InChIKey>
BQXQGZPYHWWCEB-ZDUSSCGKSA-N

>  <SMILES>
CC(C)NC[C@@H](COc1cccc2c1c3ccccc3[nH]2)O

$$$$
