3UE4_DB8_A_601
  RCSB PDB12061711023D
Coordinates from PDB:3UE4:A:601 Model:1 without hydrogens
 36 39  0  0  0  0            999 V2000
   -2.4390   15.8230  -52.6150   C 0  0  0  0  0  0  0  0  0  0  0  0
   -0.7230   17.7490  -43.8250   O 0  0  0  0  0  0  0  0  0  0  0  0
   -0.2760   10.9670  -54.9260   C 0  0  0  0  0  0  0  0  0  0  0  0
   -2.8950   14.2390  -44.0700   N 0  0  0  0  0  0  0  0  0  0  0  0
   -3.2890   18.8070  -42.4990  Cl 0  0  0  0  0  0  0  0  0  0  0  0
   -5.8900   16.3750  -46.8020  Cl 0  0  0  0  0  0  0  0  0  0  0  0
   -2.5320   13.8910  -45.0810   C 0  0  0  0  0  0  0  0  0  0  0  0
   -1.3020   12.1440  -46.5160   C 0  0  0  0  0  0  0  0  0  0  0  0
   -4.4780   17.5620  -44.6880   C 0  0  0  0  0  0  0  0  0  0  0  0
   -1.8260   16.6460  -45.7600   C 0  0  0  0  0  0  0  0  0  0  0  0
   -0.5380   11.8080  -50.3050   C 0  0  0  0  0  0  0  0  0  0  0  0
   -2.0290   14.4420  -50.2560   C 0  0  0  0  0  0  0  0  0  0  0  0
    0.7430   10.3250  -53.9950   C 0  0  0  0  0  0  0  0  0  0  0  0
    0.7360   11.0740  -52.6630   C 0  0  0  0  0  0  0  0  0  0  0  0
   -0.7980    7.5090  -59.0390   C 0  0  0  0  0  0  0  0  0  0  0  0
   -1.3080   10.3190  -57.2360   C 0  0  0  0  0  0  0  0  0  0  0  0
    0.3100    8.9150  -56.1780   C 0  0  0  0  0  0  0  0  0  0  0  0
   -0.7130    9.9490  -58.6050   C 0  0  0  0  0  0  0  0  0  0  0  0
    0.9210    8.5590  -57.4940   C 0  0  0  0  0  0  0  0  0  0  0  0
   -0.8210   11.6400  -47.7690   N 0  0  0  0  0  0  0  0  0  0  0  0
   -3.0370   15.5280  -47.7040   N 0  0  0  0  0  0  0  0  0  0  0  0
   -1.7680   14.6040  -52.6880   O 0  0  0  0  0  0  0  0  0  0  0  0
   -0.2860   12.0260  -52.7280   O 0  0  0  0  0  0  0  0  0  0  0  0
   -1.8860   17.4360  -44.4920   C 0  0  0  0  0  0  0  0  0  0  0  0
   -3.2170   17.8930  -43.9630   C 0  0  0  0  0  0  0  0  0  0  0  0
   -4.4280   16.7700  -45.9530   C 0  0  0  0  0  0  0  0  0  0  0  0
   -2.0470   13.4380  -46.4190   C 0  0  0  0  0  0  0  0  0  0  0  0
   -3.0980   16.3140  -46.4880   C 0  0  0  0  0  0  0  0  0  0  0  0
   -1.5230   13.8770  -51.5450   C 0  0  0  0  0  0  0  0  0  0  0  0
   -0.7800   12.5830  -51.5560   C 0  0  0  0  0  0  0  0  0  0  0  0
   -2.3230   14.2440  -47.6770   C 0  0  0  0  0  0  0  0  0  0  0  0
   -1.0450   12.3590  -48.9920   C 0  0  0  0  0  0  0  0  0  0  0  0
   -1.7920   13.6770  -48.9890   C 0  0  0  0  0  0  0  0  0  0  0  0
   -0.2430   10.2440  -56.2370   N 0  0  0  0  0  0  0  0  0  0  0  0
   -0.0790    8.6600  -58.5140   N 0  0  0  0  0  0  0  0  0  0  0  0
    0.3580   16.8780  -43.8610   C 0  0  0  0  0  0  0  0  0  0  0  0
  1 22  1  0  0  0  0
 24  2  1  0  0  0  0
 36  2  1  0  0  0  0
 34  3  1  0  0  0  0
 13  3  1  0  0  0  0
  7  4  3  0  0  0  0
  5 25  1  0  0  0  0
  6 26  1  0  0  0  0
 27  7  1  0  0  0  0
 27  8  2  0  0  0  0
 20  8  1  0  0  0  0
  9 26  2  0  0  0  0
  9 25  1  0  0  0  0
 28 10  2  0  0  0  0
 24 10  1  0  0  0  0
 30 11  2  0  0  0  0
 11 32  1  0  0  0  0
 29 12  2  0  0  0  0
 12 33  1  0  0  0  0
 13 14  1  0  0  0  0
 23 14  1  0  0  0  0
 15 35  1  0  0  0  0
 34 16  1  0  0  0  0
 18 16  1  0  0  0  0
 19 17  1  0  0  0  0
 17 34  1  0  0  0  0
 35 18  1  0  0  0  0
 19 35  1  0  0  0  0
 32 20  2  0  0  0  0
 28 21  1  0  0  0  0
 21 31  1  0  0  0  0
 22 29  1  0  0  0  0
 23 30  1  0  0  0  0
 25 24  2  0  0  0  0
 26 28  1  0  0  0  0
 31 27  1  0  0  0  0
 29 30  1  0  0  0  0
 33 31  2  0  0  0  0
 33 32  1  0  0  0  0
A    1
CAA
A    2
O02
A    3
CAC
A    4
NAD
A    5
CL1
A    6
CL2
A    7
CAG
A    8
CAH
A    9
CAI
A   10
CAJ
A   11
CAK
A   12
CAL
A   13
CAM
A   14
CAN
A   15
CAO
A   16
CAP
A   17
CAQ
A   18
CAR
A   19
CAS
A   20
NAT
A   21
NAU
A   22
OAV
A   23
OAW
A   24
CAX
A   25
CAY
A   26
CAZ
A   27
CBA
A   28
CBB
A   29
CBC
A   30
CBD
A   31
CBE
A   32
CBF
A   33
CBG
A   34
NBH
A   35
NBI
A   36
C01
M  END
>  <InstanceId>
3UE4_DB8_A_601

>  <ChemCompId>
DB8

>  <PdbId>
3UE4

>  <ChainId>
A

>  <ResidueNumber>
601

>  <InsertionCode>


>  <Model>
1

>  <AltIds>


>  <MissingHeavyAtoms>
0

>  <ObservedFormula>
C26 N5 O3 Cl2

>  <Name>
4-[(2,4-dichloro-5-methoxyphenyl)amino]-6-methoxy-7-[3-(4-methylpiperazin-1-yl)propoxy]quinoline-3-carbonitrile

>  <SystematicName>
4-[[2,4-bis(chloranyl)-5-methoxy-phenyl]amino]-6-methoxy-7-[3-(4-methylpiperazin-1-yl)propoxy]quinoline-3-carbonitrile

>  <Synonyms>
Bosutinib

>  <Type>
NON-POLYMER

>  <Formula>
C26 H29 Cl2 N5 O3

>  <MolecularWeight>
530.446

>  <ModifiedDate>
2011-08-31

>  <Parent>


>  <OneLetterCode>


>  <SubcomponentList>


>  <AmbiguousFlag>
N

>  <InChI>
InChI=1S/C26H29Cl2N5O3/c1-32-6-8-33(9-7-32)5-4-10-36-25-13-21-18(11-24(25)35-3)26(17(15-29)16-30-21)31-22-14-23(34-2)20(28)12-19(22)27/h11-14,16H,4-10H2,1-3H3,(H,30,31)

>  <InChIKey>
UBPYILGKFZZVDX-UHFFFAOYSA-N

>  <SMILES>
CN1CCN(CC1)CCCOc2cc3c(cc2OC)c(c(cn3)C#N)Nc4cc(c(cc4Cl)Cl)OC

$$$$
3UE4_DB8_B_601
  RCSB PDB12061711023D
Coordinates from PDB:3UE4:B:601 Model:1 without hydrogens
 36 39  0  0  0  0            999 V2000
  -22.6110   45.1230  -28.9970   C 0  0  0  0  0  0  0  0  0  0  0  0
  -14.1530   46.3810  -32.2330   O 0  0  0  0  0  0  0  0  0  0  0  0
  -25.8390   40.7800  -30.6550   C 0  0  0  0  0  0  0  0  0  0  0  0
  -14.2880   42.8730  -29.8090   N 0  0  0  0  0  0  0  0  0  0  0  0
  -12.3970   47.3670  -30.0430  Cl 0  0  0  0  0  0  0  0  0  0  0  0
  -16.2080   45.1720  -26.6040  Cl 0  0  0  0  0  0  0  0  0  0  0  0
  -15.3480   42.5630  -30.0660   C 0  0  0  0  0  0  0  0  0  0  0  0
  -17.1030   40.9500  -31.1220   C 0  0  0  0  0  0  0  0  0  0  0  0
  -14.3390   46.2540  -28.3790   C 0  0  0  0  0  0  0  0  0  0  0  0
  -15.9300   45.3700  -30.7940   C 0  0  0  0  0  0  0  0  0  0  0  0
  -20.9940   41.0360  -31.3300   C 0  0  0  0  0  0  0  0  0  0  0  0
  -20.4550   43.5970  -29.8310   C 0  0  0  0  0  0  0  0  0  0  0  0
  -24.8880   39.6950  -31.1440   C 0  0  0  0  0  0  0  0  0  0  0  0
  -23.6830   40.3400  -31.8240   C 0  0  0  0  0  0  0  0  0  0  0  0
  -30.7870   37.9410  -30.0880   C 0  0  0  0  0  0  0  0  0  0  0  0
  -28.1160   40.4660  -29.4310   C 0  0  0  0  0  0  0  0  0  0  0  0
  -27.3370   38.8550  -31.0430   C 0  0  0  0  0  0  0  0  0  0  0  0
  -29.5610   40.0700  -29.7990   C 0  0  0  0  0  0  0  0  0  0  0  0
  -28.7500   38.5700  -31.4330   C 0  0  0  0  0  0  0  0  0  0  0  0
  -18.4590   40.6020  -31.4170   N 0  0  0  0  0  0  0  0  0  0  0  0
  -17.6610   44.3730  -29.2250   N 0  0  0  0  0  0  0  0  0  0  0  0
  -22.8850   43.9960  -29.7630   O 0  0  0  0  0  0  0  0  0  0  0  0
  -23.4240   41.5550  -31.1840   O 0  0  0  0  0  0  0  0  0  0  0  0
  -14.6380   46.0930  -30.9710   C 0  0  0  0  0  0  0  0  0  0  0  0
  -13.8680   46.5270  -29.7700   C 0  0  0  0  0  0  0  0  0  0  0  0
  -15.6240   45.5230  -28.1990   C 0  0  0  0  0  0  0  0  0  0  0  0
  -16.7650   42.2090  -30.3920   C 0  0  0  0  0  0  0  0  0  0  0  0
  -16.4160   45.0920  -29.4050   C 0  0  0  0  0  0  0  0  0  0  0  0
  -21.8520   43.1870  -30.1630   C 0  0  0  0  0  0  0  0  0  0  0  0
  -22.1150   41.9270  -30.8950   C 0  0  0  0  0  0  0  0  0  0  0  0
  -17.8870   43.1240  -29.9520   C 0  0  0  0  0  0  0  0  0  0  0  0
  -19.5630   41.4280  -31.0140   C 0  0  0  0  0  0  0  0  0  0  0  0
  -19.3150   42.7140  -30.2680   C 0  0  0  0  0  0  0  0  0  0  0  0
  -27.2250   40.2140  -30.5710   N 0  0  0  0  0  0  0  0  0  0  0  0
  -29.5660   38.7100  -30.2710   N 0  0  0  0  0  0  0  0  0  0  0  0
  -14.4760   45.5410  -33.2900   C 0  0  0  0  0  0  0  0  0  0  0  0
  1 22  1  0  0  0  0
 24  2  1  0  0  0  0
 36  2  1  0  0  0  0
 34  3  1  0  0  0  0
 13  3  1  0  0  0  0
  7  4  3  0  0  0  0
  5 25  1  0  0  0  0
  6 26  1  0  0  0  0
 27  7  1  0  0  0  0
 27  8  2  0  0  0  0
 20  8  1  0  0  0  0
  9 26  2  0  0  0  0
  9 25  1  0  0  0  0
 28 10  2  0  0  0  0
 24 10  1  0  0  0  0
 30 11  2  0  0  0  0
 11 32  1  0  0  0  0
 29 12  2  0  0  0  0
 12 33  1  0  0  0  0
 13 14  1  0  0  0  0
 23 14  1  0  0  0  0
 15 35  1  0  0  0  0
 34 16  1  0  0  0  0
 18 16  1  0  0  0  0
 19 17  1  0  0  0  0
 17 34  1  0  0  0  0
 35 18  1  0  0  0  0
 19 35  1  0  0  0  0
 32 20  2  0  0  0  0
 28 21  1  0  0  0  0
 21 31  1  0  0  0  0
 22 29  1  0  0  0  0
 23 30  1  0  0  0  0
 25 24  2  0  0  0  0
 26 28  1  0  0  0  0
 31 27  1  0  0  0  0
 29 30  1  0  0  0  0
 33 31  2  0  0  0  0
 33 32  1  0  0  0  0
A    1
CAA
A    2
O02
A    3
CAC
A    4
NAD
A    5
CL1
A    6
CL2
A    7
CAG
A    8
CAH
A    9
CAI
A   10
CAJ
A   11
CAK
A   12
CAL
A   13
CAM
A   14
CAN
A   15
CAO
A   16
CAP
A   17
CAQ
A   18
CAR
A   19
CAS
A   20
NAT
A   21
NAU
A   22
OAV
A   23
OAW
A   24
CAX
A   25
CAY
A   26
CAZ
A   27
CBA
A   28
CBB
A   29
CBC
A   30
CBD
A   31
CBE
A   32
CBF
A   33
CBG
A   34
NBH
A   35
NBI
A   36
C01
M  END
>  <InstanceId>
3UE4_DB8_B_601

>  <ChemCompId>
DB8

>  <PdbId>
3UE4

>  <ChainId>
B

>  <ResidueNumber>
601

>  <InsertionCode>


>  <Model>
1

>  <AltIds>


>  <MissingHeavyAtoms>
0

>  <ObservedFormula>
C26 N5 O3 Cl2

>  <Name>
4-[(2,4-dichloro-5-methoxyphenyl)amino]-6-methoxy-7-[3-(4-methylpiperazin-1-yl)propoxy]quinoline-3-carbonitrile

>  <SystematicName>
4-[[2,4-bis(chloranyl)-5-methoxy-phenyl]amino]-6-methoxy-7-[3-(4-methylpiperazin-1-yl)propoxy]quinoline-3-carbonitrile

>  <Synonyms>
Bosutinib

>  <Type>
NON-POLYMER

>  <Formula>
C26 H29 Cl2 N5 O3

>  <MolecularWeight>
530.446

>  <ModifiedDate>
2011-08-31

>  <Parent>


>  <OneLetterCode>


>  <SubcomponentList>


>  <AmbiguousFlag>
N

>  <InChI>
InChI=1S/C26H29Cl2N5O3/c1-32-6-8-33(9-7-32)5-4-10-36-25-13-21-18(11-24(25)35-3)26(17(15-29)16-30-21)31-22-14-23(34-2)20(28)12-19(22)27/h11-14,16H,4-10H2,1-3H3,(H,30,31)

>  <InChIKey>
UBPYILGKFZZVDX-UHFFFAOYSA-N

>  <SMILES>
CN1CCN(CC1)CCCOc2cc3c(cc2OC)c(c(cn3)C#N)Nc4cc(c(cc4Cl)Cl)OC

$$$$
