3HMI_DKI_A_1
  RCSB PDB12061708553D
Coordinates from PDB:3HMI:A:1 Model:1 without hydrogens
 28 30  0  0  0  0            999 V2000
  -29.6650    6.3000  -10.4390   F 0  0  0  0  0  0  0  0  0  0  0  0
  -28.3610    6.5820  -10.6380   C 0  0  0  0  0  0  0  0  0  0  0  0
  -27.3580    6.0500   -9.8180   C 0  0  0  0  0  0  0  0  0  0  0  0
  -26.0170    6.3580  -10.0780   C 0  0  0  0  0  0  0  0  0  0  0  0
  -25.7140    7.2150  -11.1360   C 0  0  0  0  0  0  0  0  0  0  0  0
  -26.7360    7.7570  -11.9290   C 0  0  0  0  0  0  0  0  0  0  0  0
  -26.4200    8.5540  -12.9440   F 0  0  0  0  0  0  0  0  0  0  0  0
  -28.0690    7.4590  -11.6650   C 0  0  0  0  0  0  0  0  0  0  0  0
  -29.1290    7.9070  -12.3620   N 0  0  0  0  0  0  0  0  0  0  0  0
  -29.6990    9.2020  -12.0970   C 0  0  0  0  0  0  0  0  0  0  0  0
  -29.6790    9.7430  -10.3650   S 0  0  0  0  0  0  0  0  0  0  0  0
  -30.8590    9.5270  -12.8790   N 0  0  0  0  0  0  0  0  0  0  0  0
  -30.8920    9.1060  -14.0770   N 0  0  0  0  0  0  0  0  0  0  0  0
  -31.7700   10.4880  -12.6450   C 0  0  0  0  0  0  0  0  0  0  0  0
  -32.0110   11.2080  -11.5160   N 0  0  0  0  0  0  0  0  0  0  0  0
  -32.4810   10.5840  -13.7600   N 0  0  0  0  0  0  0  0  0  0  0  0
  -31.9270    9.7350  -14.6400   C 0  0  0  0  0  0  0  0  0  0  0  0
  -32.3900    9.5800  -15.8910   N 0  0  0  0  0  0  0  0  0  0  0  0
  -31.9760    8.6580  -16.8350   C 0  0  0  0  0  0  0  0  0  0  0  0
  -32.8330    8.5010  -17.9250   C 0  0  0  0  0  0  0  0  0  0  0  0
  -32.5680    7.6130  -18.9520   C 0  0  0  0  0  0  0  0  0  0  0  0
  -30.8010    7.9190  -16.8450   C 0  0  0  0  0  0  0  0  0  0  0  0
  -30.5190    7.0140  -17.8920   C 0  0  0  0  0  0  0  0  0  0  0  0
  -31.4260    6.8850  -18.9420   C 0  0  0  0  0  0  0  0  0  0  0  0
  -31.1790    5.7800  -20.2750   S 0  0  0  0  0  0  0  0  0  0  0  0
  -29.9620    5.0150  -20.0110   O 0  0  0  0  0  0  0  0  0  0  0  0
  -32.4030    4.9260  -20.2920   O 0  0  0  0  0  0  0  0  0  0  0  0
  -31.0640    6.5340  -21.7430   N 0  0  0  0  0  0  0  0  0  0  0  0
  1  2  1  0  0  0  0
  2  3  2  0  0  0  0
  2  8  1  0  0  0  0
  3  4  1  0  0  0  0
  4  5  2  0  0  0  0
  5  6  1  0  0  0  0
  6  7  1  0  0  0  0
  6  8  2  0  0  0  0
  8  9  1  0  0  0  0
  9 10  1  0  0  0  0
 10 11  2  0  0  0  0
 10 12  1  0  0  0  0
 12 13  1  0  0  0  0
 12 14  1  0  0  0  0
 13 17  2  0  0  0  0
 14 15  1  0  0  0  0
 14 16  2  0  0  0  0
 16 17  1  0  0  0  0
 17 18  1  0  0  0  0
 18 19  1  0  0  0  0
 19 20  2  0  0  0  0
 19 22  1  0  0  0  0
 20 21  1  0  0  0  0
 21 24  2  0  0  0  0
 22 23  2  0  0  0  0
 23 24  1  0  0  0  0
 24 25  1  0  0  0  0
 25 26  2  0  0  0  0
 25 27  2  0  0  0  0
 25 28  1  0  0  0  0
A    1
FAF
A    2
CAU
A    3
CAI
A    4
CAH
A    5
CAJ
A    6
CAV
A    7
FAG
A    8
CAZ
A    9
NAQ
A   10
CAS
A   11
SAE
A   12
NBA
A   13
NAP
A   14
CAT
A   15
NAA
A   16
NAO
A   17
CAX
A   18
NAR
A   19
CAW
A   20
CAL
A   21
CAN
A   22
CAK
A   23
CAM
A   24
CAY
A   25
SBB
A   26
OAC
A   27
OAD
A   28
NAB
M  END
>  <InstanceId>
3HMI_DKI_A_1

>  <ChemCompId>
DKI

>  <PdbId>
3HMI

>  <ChainId>
A

>  <ResidueNumber>
1

>  <InsertionCode>


>  <Model>
1

>  <AltIds>


>  <MissingHeavyAtoms>
0

>  <ObservedFormula>
C15 N7 O2 S2 F2

>  <Name>
5-AMINO-3-{[4-(AMINOSULFONYL)PHENYL]AMINO}-N-(2,6-DIFLUOROPHENYL)-1H-1,2,4-TRIAZOLE-1-CARBOTHIOAMIDE

>  <SystematicName>
5-amino-N-(2,6-difluorophenyl)-3-[(4-sulfamoylphenyl)amino]-1,2,4-triazole-1-carbothioamide

>  <Synonyms>
CDK 1/2 INHIBITOR

>  <Type>
NON-POLYMER

>  <Formula>
C15 H13 F2 N7 O2 S2

>  <MolecularWeight>
425.436

>  <ModifiedDate>
2011-06-04

>  <Parent>


>  <OneLetterCode>


>  <SubcomponentList>


>  <AmbiguousFlag>
N

>  <InChI>
InChI=1S/C15H13F2N7O2S2/c16-10-2-1-3-11(17)12(10)21-15(27)24-13(18)22-14(23-24)20-8-4-6-9(7-5-8)28(19,25)26/h1-7H,(H,21,27)(H2,19,25,26)(H3,18,20,22,23)

>  <InChIKey>
ARIOBGGRZJITQX-UHFFFAOYSA-N

>  <SMILES>
c1cc(c(c(c1)F)NC(=S)n2c(nc(n2)Nc3ccc(cc3)S(=O)(=O)N)N)F

$$$$
