6MXT_K5Y_A_1401
  RCSB PDB11101803503D
Coordinates from PDB:6MXT:A:1401 Model:1 without hydrogens
 30 31  0  0  0  0            999 V2000
   -6.3310   -0.0270   42.0680   C 0  0  0  0  0  0  0  0  0  0  0  0
   -5.9020    1.1620   42.6510   C 0  0  0  0  0  0  0  0  0  0  0  0
   -4.8380    1.1550   43.5450   C 0  0  0  0  0  0  0  0  0  0  0  0
   -4.2070   -0.0420   43.8570   C 0  0  0  0  0  0  0  0  0  0  0  0
   -4.6350   -1.2310   43.2760   C 0  0  0  0  0  0  0  0  0  0  0  0
   -5.6990   -1.2260   42.3810   C 0  0  0  0  0  0  0  0  0  0  0  0
   -6.1240   -2.4180   41.8050   C 0  0  0  0  0  0  0  0  0  0  0  0
   -6.4890   -3.4200   42.9090   C 0  0  0  0  0  0  0  0  0  0  0  0
   -7.7360   -2.9370   43.6560   C 0  0  0  0  0  0  0  0  0  0  0  0
   -8.1560   -3.9800   44.6910   C 0  0  0  0  0  0  0  0  0  0  0  0
   -8.7080   -5.1180   44.0300   O 0  0  0  0  0  0  0  0  0  0  0  0
   -9.6560   -5.7400   44.9000   C 0  0  0  0  0  0  0  0  0  0  0  0
  -10.3570   -6.8690   44.1490   C 0  0  0  0  0  0  0  0  0  0  0  0
  -11.0340   -6.2880   42.9050   C 0  0  0  0  0  0  0  0  0  0  0  0
  -11.7970   -7.3940   42.1700   C 0  0  0  0  0  0  0  0  0  0  0  0
  -12.7790   -6.7750   41.1730   C 0  0  0  0  0  0  0  0  0  0  0  0
  -12.1150   -6.6140   39.8000   C 0  0  0  0  0  0  0  0  0  0  0  0
  -13.0660   -6.0720   38.8120   N 0  0  0  0  0  0  0  0  0  0  0  0
  -12.4670   -6.0230   37.4700   C 0  0  0  0  0  0  0  0  0  0  0  0
  -13.3190   -5.1490   36.5420   C 0  0  0  0  0  0  0  0  0  0  0  0
  -14.6500   -5.6650   36.5410   O 0  0  0  0  0  0  0  0  0  0  0  0
  -12.7910   -5.2060   35.2600   C 0  0  0  0  0  0  0  0  0  0  0  0
  -11.5310   -4.6710   34.9950   C 0  0  0  0  0  0  0  0  0  0  0  0
  -13.5250   -5.8080   34.2460   C 0  0  0  0  0  0  0  0  0  0  0  0
  -13.0000   -5.8710   32.9610   C 0  0  0  0  0  0  0  0  0  0  0  0
  -11.7480   -5.3350   32.7040   C 0  0  0  0  0  0  0  0  0  0  0  0
  -11.1960   -5.3750   31.4610   O 0  0  0  0  0  0  0  0  0  0  0  0
  -11.0040   -4.7340   33.7100   C 0  0  0  0  0  0  0  0  0  0  0  0
   -9.7510   -4.2050   33.4290   C 0  0  0  0  0  0  0  0  0  0  0  0
   -8.7830   -5.2560   33.4750   O 0  0  0  0  0  0  0  0  0  0  0  0
 27 26  1  0  0  0  0
 26 25  2  0  0  0  0
 26 28  1  0  0  0  0
 25 24  1  0  0  0  0
 29 30  1  0  0  0  0
 29 28  1  0  0  0  0
 28 23  2  0  0  0  0
 24 22  2  0  0  0  0
 23 22  1  0  0  0  0
 22 20  1  0  0  0  0
 21 20  1  0  0  0  0
 20 19  1  0  0  0  0
 19 18  1  0  0  0  0
 18 17  1  0  0  0  0
 17 16  1  0  0  0  0
 16 15  1  0  0  0  0
  7  6  1  0  0  0  0
  7  8  1  0  0  0  0
  1  6  2  0  0  0  0
  1  2  1  0  0  0  0
 15 14  1  0  0  0  0
  6  5  1  0  0  0  0
  2  3  2  0  0  0  0
 14 13  1  0  0  0  0
  8  9  1  0  0  0  0
  5  4  2  0  0  0  0
  3  4  1  0  0  0  0
  9 10  1  0  0  0  0
 11 10  1  0  0  0  0
 11 12  1  0  0  0  0
 13 12  1  0  0  0  0
A    1
CAG
A    2
CAE
A    3
CAD
A    4
CAF
A    5
CAH
A    6
CAZ
A    7
CAV
A    8
CAQ
A    9
CAP
A   10
CAU
A   11
OAY
A   12
CAT
A   13
CAO
A   14
CAM
A   15
CAL
A   16
CAN
A   17
CAS
A   18
NAX
A   19
CAW
A   20
CBD
A   21
OAC
A   22
CBB
A   23
CAK
A   24
CAJ
A   25
CAI
A   26
CBA
A   27
OAB
A   28
CBC
A   29
CAR
A   30
OAA
M  END
>  <InstanceId>
6MXT_K5Y_A_1401

>  <ChemCompId>
K5Y

>  <PdbId>
6MXT

>  <ChainId>
A

>  <ResidueNumber>
1401

>  <InsertionCode>


>  <Model>
1

>  <AltIds>


>  <MissingHeavyAtoms>
0

>  <ObservedFormula>
C25 N O4

>  <Name>
salmeterol

>  <SystematicName>
2-(hydroxymethyl)-4-[(1~{R})-1-oxidanyl-2-[6-(4-phenylbutoxy)hexylamino]ethyl]phenol

>  <Synonyms>
2-(hydroxymethyl)-4-[(1R)-1-hydroxy-2-{[6-(4-phenylbutoxy)hexyl]amino}ethyl]phenol

>  <Type>
NON-POLYMER

>  <Formula>
C25 H37 N O4

>  <MolecularWeight>
415.566

>  <ModifiedDate>
2018-11-09

>  <Parent>


>  <OneLetterCode>


>  <SubcomponentList>


>  <AmbiguousFlag>
N

>  <InChI>
InChI=1S/C25H37NO4/c27-20-23-18-22(13-14-24(23)28)25(29)19-26-15-7-1-2-8-16-30-17-9-6-12-21-10-4-3-5-11-21/h3-5,10-11,13-14,18,25-29H,1-2,6-9,12,15-17,19-20H2/t25-/m0/s1

>  <InChIKey>
GIIZNNXWQWCKIB-VWLOTQADSA-N

>  <SMILES>
c1ccc(cc1)CCCCOCCCCCCNC[C@@H](c2ccc(c(c2)CO)O)O

$$$$
