6N48_KBY_A_1403
  RCSB PDB06281923283D
Coordinates from PDB:6N48:A:1403 Model:1 without hydrogens
 46 48  0  0  0  0            999 V2000
   13.5080   -8.0100  -20.6170   C 0  0  0  0  0  0  0  0  0  0  0  0
    7.3320   -8.5590  -25.1670   C 0  0  0  0  0  0  0  0  0  0  0  0
   12.6430   -7.0650  -21.1510   C 0  0  0  0  0  0  0  0  0  0  0  0
   11.4260   -7.4700  -21.7190   C 0  0  0  0  0  0  0  0  0  0  0  0
    9.0690   -7.1770  -23.5060   C 0  0  0  0  0  0  0  0  0  0  0  0
   13.5290   -9.9040  -17.5600   C 0  0  0  0  0  0  0  0  0  0  0  0
   12.7770  -12.0960  -18.3890   C 0  0  0  0  0  0  0  0  0  0  0  0
   11.3980  -11.4660  -18.1370   C 0  0  0  0  0  0  0  0  0  0  0  0
   13.0810  -13.1960  -17.3580   C 0  0  0  0  0  0  0  0  0  0  0  0
    7.7380   -7.3330  -23.1380   C 0  0  0  0  0  0  0  0  0  0  0  0
    6.8690   -8.0260  -23.9730   C 0  0  0  0  0  0  0  0  0  0  0  0
   13.8640  -11.0800  -18.3470   N 0  0  0  0  0  0  0  0  0  0  0  0
   13.1800   -9.3670  -20.6430   C 0  0  0  0  0  0  0  0  0  0  0  0
   11.0970   -8.8160  -21.7520   C 0  0  0  0  0  0  0  0  0  0  0  0
    8.6610   -8.4080  -25.5320   C 0  0  0  0  0  0  0  0  0  0  0  0
    9.5290   -7.7170  -24.6980   C 0  0  0  0  0  0  0  0  0  0  0  0
    5.4410   -9.9280  -25.2840   C 0  0  0  0  0  0  0  0  0  0  0  0
   13.0990   -5.5720  -21.0550   C 0  0  0  0  0  0  0  0  0  0  0  0
   11.9730   -9.7600  -21.2150   C 0  0  0  0  0  0  0  0  0  0  0  0
   15.7280  -10.0750  -19.9410   O 0  0  0  0  0  0  0  0  0  0  0  0
   14.4190  -11.8330  -20.8260   O 0  0  0  0  0  0  0  0  0  0  0  0
    6.4470   -9.2550  -26.0010   O 0  0  0  0  0  0  0  0  0  0  0  0
   12.3110   -4.6720  -21.0810   O 0  0  0  0  0  0  0  0  0  0  0  0
   14.3350  -10.6220  -19.9360   S 0  0  0  0  0  0  0  0  0  0  0  0
   10.2440   -6.2730  -22.4310   S 0  0  0  0  0  0  0  0  0  0  0  0
   14.5470   -5.2890  -20.8980   N 0  0  0  0  0  0  0  0  0  0  0  0
   14.9830   -3.8910  -20.7960   C 0  0  0  0  0  0  0  0  0  0  0  0
   15.5040   -3.4410  -22.1590   C 0  0  0  0  0  0  0  0  0  0  0  0
   16.0470   -3.8080  -19.7110   C 0  0  0  0  0  0  0  0  0  0  0  0
   14.3150   -3.2620  -23.1490   C 0  0  0  0  0  0  0  0  0  0  0  0
   14.0250   -4.2500  -24.0830   C 0  0  0  0  0  0  0  0  0  0  0  0
   12.9550   -4.0840  -24.9650   C 0  0  0  0  0  0  0  0  0  0  0  0
   12.1780   -2.9290  -24.9090   C 0  0  0  0  0  0  0  0  0  0  0  0
   12.4680   -1.9430  -23.9710   C 0  0  0  0  0  0  0  0  0  0  0  0
   13.5340   -2.1080  -23.0910   C 0  0  0  0  0  0  0  0  0  0  0  0
   10.9870   -2.7440  -25.8880   C 0  0  0  0  0  0  0  0  0  0  0  0
   11.3400   -3.3530  -27.2470   C 0  0  0  0  0  0  0  0  0  0  0  0
   10.6870   -1.2520  -26.0570   C 0  0  0  0  0  0  0  0  0  0  0  0
    9.7500   -3.4480  -25.3190   C 0  0  0  0  0  0  0  0  0  0  0  0
   15.5500   -3.9060  -18.2550   C 0  0  0  0  0  0  0  0  0  0  0  0
   14.9240   -3.0170  -17.7930   O 0  0  0  0  0  0  0  0  0  0  0  0
   15.8460   -5.0790  -17.4310   N 0  0  0  0  0  0  0  0  0  0  0  0
   16.6130   -6.2010  -17.9560   C 0  0  0  0  0  0  0  0  0  0  0  0
   16.6480   -7.3380  -16.9280   C 0  0  0  0  0  0  0  0  0  0  0  0
   17.3640   -8.3550  -17.1320   O 0  0  0  0  0  0  0  0  0  0  0  0
   15.9620   -7.2540  -15.8740   O 0  0  0  0  0  0  0  0  0  0  0  0
  1 13  2  0  0  0  0
  1  3  1  0  0  0  0
  2 22  1  0  0  0  0
  2 15  2  0  0  0  0
  2 11  1  0  0  0  0
  3  4  2  0  0  0  0
  3 18  1  0  0  0  0
  4 14  1  0  0  0  0
  4 25  1  0  0  0  0
  5 10  1  0  0  0  0
  5 16  2  0  0  0  0
  5 25  1  0  0  0  0
  6 12  1  0  0  0  0
  7  8  1  0  0  0  0
  7  9  1  0  0  0  0
  7 12  1  0  0  0  0
 10 11  2  0  0  0  0
 12 24  1  0  0  0  0
 26 18  1  0  0  0  0
 26 27  1  0  0  0  0
 13 19  1  0  0  0  0
 13 24  1  0  0  0  0
 42 43  1  0  0  0  0
 42 40  1  0  0  0  0
 14 19  2  0  0  0  0
 15 16  1  0  0  0  0
 17 22  1  0  0  0  0
 18 23  2  0  0  0  0
 27 28  1  0  0  0  0
 27 29  1  0  0  0  0
 28 30  1  0  0  0  0
 29 40  1  0  0  0  0
 30 31  2  0  0  0  0
 30 35  1  0  0  0  0
 31 32  1  0  0  0  0
 32 33  2  0  0  0  0
 33 36  1  0  0  0  0
 33 34  1  0  0  0  0
 34 35  2  0  0  0  0
 36 37  1  0  0  0  0
 36 38  1  0  0  0  0
 36 39  1  0  0  0  0
 40 41  2  0  0  0  0
 43 44  1  0  0  0  0
 44 45  2  0  0  0  0
 44 46  1  0  0  0  0
 20 24  2  0  0  0  0
 21 24  2  0  0  0  0
A    1
C1
A    2
C2
A    3
C3
A    4
C4
A    5
C5
A    6
C6
A    7
C7
A    8
C8
A    9
C9
A   10
C10
A   11
C11
A   12
N1
A   13
C12
A   14
C13
A   15
C14
A   16
C15
A   17
C16
A   18
C17
A   19
C19
A   20
O1
A   21
O2
A   22
O3
A   23
O4
A   24
S1
A   25
S2
A   26
N2
A   27
C18
A   28
C20
A   29
C21
A   30
C22
A   31
C23
A   32
C24
A   33
C25
A   34
C26
A   35
C27
A   36
C28
A   37
C29
A   38
C30
A   39
C31
A   40
C32
A   41
O5
A   42
N3
A   43
C33
A   44
C34
A   45
O6
A   46
O7
M  END
>  <InstanceId>
6N48_KBY_A_1403

>  <ChemCompId>
KBY

>  <PdbId>
6N48

>  <ChainId>
A

>  <ResidueNumber>
1403

>  <InsertionCode>


>  <Model>
1

>  <AltIds>


>  <MissingHeavyAtoms>
0

>  <ObservedFormula>
C34 N3 O7 S2

>  <Name>
N-[(3R)-4-(4-tert-butylphenyl)-3-({2-[(4-methoxyphenyl)sulfanyl]-5-[methyl(propan-2-yl)sulfamoyl]benzene-1-carbonyl}amino)butanoyl]glycine

>  <SystematicName>
2-[[(3~{R})-4-(4-~{tert}-butylphenyl)-3-[[2-(4-methoxyphenyl)sulfanyl-5-[methyl(propan-2-yl)sulfamoyl]phenyl]carbonylamino]butanoyl]amino]ethanoic acid

>  <Synonyms>


>  <Type>
NON-POLYMER

>  <Formula>
C34 H43 N3 O7 S2

>  <MolecularWeight>
669.851

>  <ModifiedDate>
2019-06-21

>  <Parent>


>  <OneLetterCode>


>  <SubcomponentList>
KBS KBV GLY

>  <AmbiguousFlag>
N

>  <InChI>
InChI=1S/C34H43N3O7S2/c1-22(2)37(6)46(42,43)28-16-17-30(45-27-14-12-26(44-7)13-15-27)29(20-28)33(41)36-25(19-31(38)35-21-32(39)40)18-23-8-10-24(11-9-23)34(3,4)5/h8-17,20,22,25H,18-19,21H2,1-7H3,(H,35,38)(H,36,41)(H,39,40)/t25-/m1/s1

>  <InChIKey>
POBZRCRFILRWTQ-RUZDIDTESA-N

>  <SMILES>
CC(C)N(C)S(=O)(=O)c1ccc(c(c1)C(=O)N[C@H](Cc2ccc(cc2)C(C)(C)C)CC(=O)NCC(=O)O)Sc3ccc(cc3)OC

$$$$
