6NPV_KWP_A_603
  RCSB PDB03081920123D
Coordinates from PDB:6NPV:A:603 Model:1 without hydrogens
 25 27  0  0  0  0            999 V2000
   16.3640    7.3580  -33.8200   C 0  0  0  0  0  0  0  0  0  0  0  0
   17.4580    5.5600  -32.6950   C 0  0  0  0  0  0  0  0  0  0  0  0
   16.3290    4.7810  -32.8320   C 0  0  0  0  0  0  0  0  0  0  0  0
   11.8090    7.0660  -34.7040   C 0  0  0  0  0  0  0  0  0  0  0  0
    9.4870    7.2660  -35.4130   C 0  0  0  0  0  0  0  0  0  0  0  0
   13.7580    8.4460  -34.7410   C 0  0  0  0  0  0  0  0  0  0  0  0
   12.2500    8.4390  -34.9680   C 0  0  0  0  0  0  0  0  0  0  0  0
   11.5600    9.3290  -33.9720   C 0  0  0  0  0  0  0  0  0  0  0  0
   12.1130   10.7300  -34.0080   C 0  0  0  0  0  0  0  0  0  0  0  0
   17.4750    6.8480  -33.1820   C 0  0  0  0  0  0  0  0  0  0  0  0
    7.1530    6.9520  -36.0650   C 0  0  0  0  0  0  0  0  0  0  0  0
    7.9110    6.0420  -33.9930   C 0  0  0  0  0  0  0  0  0  0  0  0
   15.2190    5.3010  -33.4610   C 0  0  0  0  0  0  0  0  0  0  0  0
    5.9160    6.4350  -35.7630   C 0  0  0  0  0  0  0  0  0  0  0  0
    6.6330    5.5730  -33.8000   C 0  0  0  0  0  0  0  0  0  0  0  0
    8.1560    6.7400  -35.1470   C 0  0  0  0  0  0  0  0  0  0  0  0
   15.2300    6.5900  -33.9590   C 0  0  0  0  0  0  0  0  0  0  0  0
    5.6170    5.7490  -34.6540   N 0  0  0  0  0  0  0  0  0  0  0  0
   14.0710    7.0370  -34.6150   N 0  0  0  0  0  0  0  0  0  0  0  0
   12.8480    6.3000  -34.4850   N 0  0  0  0  0  0  0  0  0  0  0  0
   10.5330    6.6850  -34.6550   N 0  0  0  0  0  0  0  0  0  0  0  0
    9.7130    8.1360  -36.2410   O 0  0  0  0  0  0  0  0  0  0  0  0
   11.5600   11.3700  -35.1430   O 0  0  0  0  0  0  0  0  0  0  0  0
   18.8480    4.9030  -31.8970  Cl 0  0  0  0  0  0  0  0  0  0  0  0
   16.3160    3.1620  -32.2050  Cl 0  0  0  0  0  0  0  0  0  0  0  0
 14 11  2  0  0  0  0
 14 18  1  0  0  0  0
 11 16  1  0  0  0  0
 18 15  2  0  0  0  0
 22  5  2  0  0  0  0
 16  5  1  0  0  0  0
 16 12  2  0  0  0  0
 15 12  1  0  0  0  0
  9 23  1  0  0  0  0
  9  8  1  0  0  0  0
  5 21  1  0  0  0  0
  8  7  1  0  0  0  0
 21  4  1  0  0  0  0
  7  4  1  0  0  0  0
  7  6  1  0  0  0  0
  4 20  2  0  0  0  0
  6 19  1  0  0  0  0
 20 19  1  0  0  0  0
 19 17  1  0  0  0  0
 17  1  2  0  0  0  0
 17 13  1  0  0  0  0
  1 10  1  0  0  0  0
 13  3  2  0  0  0  0
 10  2  2  0  0  0  0
  3  2  1  0  0  0  0
  3 25  1  0  0  0  0
  2 24  1  0  0  0  0
A    1
C1
A    2
C10
A    3
C11
A    4
C12
A    5
C13
A    6
C14
A    7
C15
A    8
C16
A    9
C17
A   10
C2
A   11
C3
A   12
C4
A   13
C5
A   14
C6
A   15
C7
A   16
C8
A   17
C9
A   18
N18
A   19
N19
A   20
N20
A   21
N21
A   22
O22
A   23
O23
A   24
CL24
A   25
CL25
M  END
>  <InstanceId>
6NPV_KWP_A_603

>  <ChemCompId>
KWP

>  <PdbId>
6NPV

>  <ChainId>
A

>  <ResidueNumber>
603

>  <InsertionCode>


>  <Model>
1

>  <AltIds>


>  <MissingHeavyAtoms>
0

>  <ObservedFormula>
C17 N4 O2 Cl2

>  <Name>
~{N}-[(4~{S})-2-(3,4-dichlorophenyl)-4-(2-hydroxyethyl)-3,4-dihydropyrazol-5-yl]pyridine-4-carboxamide

>  <SystematicName>
~{N}-[(4~{S})-2-(3,4-dichlorophenyl)-4-(2-hydroxyethyl)-3,4-dihydropyrazol-5-yl]pyridine-4-carboxamide

>  <Synonyms>


>  <Type>
NON-POLYMER

>  <Formula>
C17 H16 Cl2 N4 O2

>  <MolecularWeight>
379.241

>  <ModifiedDate>
2019-03-08

>  <Parent>


>  <OneLetterCode>


>  <SubcomponentList>


>  <AmbiguousFlag>
N

>  <InChI>
InChI=1S/C17H16Cl2N4O2/c18-14-2-1-13(9-15(14)19)23-10-12(5-8-24)16(22-23)21-17(25)11-3-6-20-7-4-11/h1-4,6-7,9,12,24H,5,8,10H2,(H,21,22,25)/t12-/m0/s1

>  <InChIKey>
XHACMMNMQIKLAQ-LBPRGKRZSA-N

>  <SMILES>
c1cc(c(cc1N2C[C@@H](C(=N2)NC(=O)c3ccncc3)CCO)Cl)Cl

$$$$
6NPV_KWP_B_607
  RCSB PDB03081920123D
Coordinates from PDB:6NPV:B:607 Model:1 without hydrogens
 25 27  0  0  0  0            999 V2000
   14.9820   22.3900  -15.7760   C 0  0  0  0  0  0  0  0  0  0  0  0
   14.1840   22.8890  -13.5870   C 0  0  0  0  0  0  0  0  0  0  0  0
   13.2620   23.7510  -14.1250   C 0  0  0  0  0  0  0  0  0  0  0  0
   13.6540   25.0280  -19.3330   C 0  0  0  0  0  0  0  0  0  0  0  0
   13.0640   26.1440  -21.4120   C 0  0  0  0  0  0  0  0  0  0  0  0
   15.0620   23.2500  -18.6120   C 0  0  0  0  0  0  0  0  0  0  0  0
   14.7280   24.1390  -19.8080   C 0  0  0  0  0  0  0  0  0  0  0  0
   15.9390   24.9430  -20.2150   C 0  0  0  0  0  0  0  0  0  0  0  0
   16.5120   24.3680  -21.4870   C 0  0  0  0  0  0  0  0  0  0  0  0
   15.0440   22.2010  -14.4030   C 0  0  0  0  0  0  0  0  0  0  0  0
   12.1530   27.4720  -23.2730   C 0  0  0  0  0  0  0  0  0  0  0  0
   12.6050   28.5590  -21.1960   C 0  0  0  0  0  0  0  0  0  0  0  0
   13.1900   23.9360  -15.4940   C 0  0  0  0  0  0  0  0  0  0  0  0
   11.7290   28.6940  -23.7530   C 0  0  0  0  0  0  0  0  0  0  0  0
   12.1550   29.7260  -21.7770   C 0  0  0  0  0  0  0  0  0  0  0  0
   12.5970   27.4210  -21.9670   C 0  0  0  0  0  0  0  0  0  0  0  0
   14.0600   23.2570  -16.3220   C 0  0  0  0  0  0  0  0  0  0  0  0
   11.7170   29.8270  -23.0430   N 0  0  0  0  0  0  0  0  0  0  0  0
   13.9390   23.4810  -17.7110   N 0  0  0  0  0  0  0  0  0  0  0  0
   13.2300   24.6450  -18.1510   N 0  0  0  0  0  0  0  0  0  0  0  0
   13.1980   26.0810  -19.9990   N 0  0  0  0  0  0  0  0  0  0  0  0
   13.3250   25.1570  -22.0830   O 0  0  0  0  0  0  0  0  0  0  0  0
   17.5160   23.4270  -21.1470   O 0  0  0  0  0  0  0  0  0  0  0  0
   14.2210   22.6760  -11.8690  Cl 0  0  0  0  0  0  0  0  0  0  0  0
   12.1930   24.5930  -13.0670  Cl 0  0  0  0  0  0  0  0  0  0  0  0
 14 11  2  0  0  0  0
 14 18  1  0  0  0  0
 11 16  1  0  0  0  0
 18 15  2  0  0  0  0
 22  5  2  0  0  0  0
 16  5  1  0  0  0  0
 16 12  2  0  0  0  0
 15 12  1  0  0  0  0
  9 23  1  0  0  0  0
  9  8  1  0  0  0  0
  5 21  1  0  0  0  0
  8  7  1  0  0  0  0
 21  4  1  0  0  0  0
  7  4  1  0  0  0  0
  7  6  1  0  0  0  0
  4 20  2  0  0  0  0
  6 19  1  0  0  0  0
 20 19  1  0  0  0  0
 19 17  1  0  0  0  0
 17  1  2  0  0  0  0
 17 13  1  0  0  0  0
  1 10  1  0  0  0  0
 13  3  2  0  0  0  0
 10  2  2  0  0  0  0
  3  2  1  0  0  0  0
  3 25  1  0  0  0  0
  2 24  1  0  0  0  0
A    1
C1
A    2
C10
A    3
C11
A    4
C12
A    5
C13
A    6
C14
A    7
C15
A    8
C16
A    9
C17
A   10
C2
A   11
C3
A   12
C4
A   13
C5
A   14
C6
A   15
C7
A   16
C8
A   17
C9
A   18
N18
A   19
N19
A   20
N20
A   21
N21
A   22
O22
A   23
O23
A   24
CL24
A   25
CL25
M  END
>  <InstanceId>
6NPV_KWP_B_607

>  <ChemCompId>
KWP

>  <PdbId>
6NPV

>  <ChainId>
B

>  <ResidueNumber>
607

>  <InsertionCode>


>  <Model>
1

>  <AltIds>


>  <MissingHeavyAtoms>
0

>  <ObservedFormula>
C17 N4 O2 Cl2

>  <Name>
~{N}-[(4~{S})-2-(3,4-dichlorophenyl)-4-(2-hydroxyethyl)-3,4-dihydropyrazol-5-yl]pyridine-4-carboxamide

>  <SystematicName>
~{N}-[(4~{S})-2-(3,4-dichlorophenyl)-4-(2-hydroxyethyl)-3,4-dihydropyrazol-5-yl]pyridine-4-carboxamide

>  <Synonyms>


>  <Type>
NON-POLYMER

>  <Formula>
C17 H16 Cl2 N4 O2

>  <MolecularWeight>
379.241

>  <ModifiedDate>
2019-03-08

>  <Parent>


>  <OneLetterCode>


>  <SubcomponentList>


>  <AmbiguousFlag>
N

>  <InChI>
InChI=1S/C17H16Cl2N4O2/c18-14-2-1-13(9-15(14)19)23-10-12(5-8-24)16(22-23)21-17(25)11-3-6-20-7-4-11/h1-4,6-7,9,12,24H,5,8,10H2,(H,21,22,25)/t12-/m0/s1

>  <InChIKey>
XHACMMNMQIKLAQ-LBPRGKRZSA-N

>  <SMILES>
c1cc(c(cc1N2C[C@@H](C(=N2)NC(=O)c3ccncc3)CCO)Cl)Cl

$$$$
