3CS9_NIL_A_600
  RCSB PDB12061708133D
Coordinates from PDB:3CS9:A:600 Model:1 without hydrogens
 39 43  0  0  0  0            999 V2000
   27.4370    2.8950   51.2430   O 0  0  0  0  0  0  0  0  0  0  0  0
   27.1160    2.6680   52.3840   C 0  0  0  0  0  0  0  0  0  0  0  0
   26.0130    3.0980   53.0150   N 0  0  0  0  0  0  0  0  0  0  0  0
   25.1140    4.0420   52.5350   C 0  0  0  0  0  0  0  0  0  0  0  0
   24.3180    4.8060   53.4240   C 0  0  0  0  0  0  0  0  0  0  0  0
   23.4180    5.7650   52.9510   C 0  0  0  0  0  0  0  0  0  0  0  0
   22.6560    6.5560   53.8240   N 0  0  0  0  0  0  0  0  0  0  0  0
   22.3140    6.3130   55.1530   C 0  0  0  0  0  0  0  0  0  0  0  0
   21.4970    7.3060   55.5670   C 0  0  0  0  0  0  0  0  0  0  0  0
   20.8800    7.4930   56.9320   C 0  0  0  0  0  0  0  0  0  0  0  0
   21.3460    8.1740   54.5420   N 0  0  0  0  0  0  0  0  0  0  0  0
   22.0110    7.6890   53.5220   C 0  0  0  0  0  0  0  0  0  0  0  0
   23.2420    5.9220   51.5800   C 0  0  0  0  0  0  0  0  0  0  0  0
   24.8860    4.1760   51.1480   C 0  0  0  0  0  0  0  0  0  0  0  0
   23.9850    5.1690   50.6680   C 0  0  0  0  0  0  0  0  0  0  0  0
   23.8080    5.3300   49.1930   C 0  0  0  0  0  0  0  0  0  0  0  0
   23.7250    4.1770   48.5000   F 0  0  0  0  0  0  0  0  0  0  0  0
   22.6440    5.9040   48.9120   F 0  0  0  0  0  0  0  0  0  0  0  0
   24.8490    5.9670   48.6180   F 0  0  0  0  0  0  0  0  0  0  0  0
   27.8680    1.5870   53.0510   C 0  0  0  0  0  0  0  0  0  0  0  0
   27.5140    1.0020   54.2760   C 0  0  0  0  0  0  0  0  0  0  0  0
   28.2050   -0.1000   54.7820   C 0  0  0  0  0  0  0  0  0  0  0  0
   29.2140   -0.7110   54.0550   C 0  0  0  0  0  0  0  0  0  0  0  0
   29.9540   -1.9170   54.6160   C 0  0  0  0  0  0  0  0  0  0  0  0
   29.5010   -0.1980   52.7910   C 0  0  0  0  0  0  0  0  0  0  0  0
   28.8130    0.9240   52.3120   C 0  0  0  0  0  0  0  0  0  0  0  0
   30.6200   -0.6930   52.1090   N 0  0  0  0  0  0  0  0  0  0  0  0
   31.8450   -0.0340   52.2300   C 0  0  0  0  0  0  0  0  0  0  0  0
   32.1570    1.0110   52.9860   N 0  0  0  0  0  0  0  0  0  0  0  0
   33.4140    1.4820   52.8790   C 0  0  0  0  0  0  0  0  0  0  0  0
   34.3070    0.9710   52.0170   C 0  0  0  0  0  0  0  0  0  0  0  0
   33.9360   -0.0810   51.2560   C 0  0  0  0  0  0  0  0  0  0  0  0
   32.7080   -0.6040   51.3500   N 0  0  0  0  0  0  0  0  0  0  0  0
   34.8530   -0.7620   50.3050   C 0  0  0  0  0  0  0  0  0  0  0  0
   36.1840   -0.3460   50.1410   C 0  0  0  0  0  0  0  0  0  0  0  0
   36.9880   -1.0040   49.2190   C 0  0  0  0  0  0  0  0  0  0  0  0
   36.4440   -2.0750   48.5110   C 0  0  0  0  0  0  0  0  0  0  0  0
   35.1680   -2.4770   48.6290   N 0  0  0  0  0  0  0  0  0  0  0  0
   34.4000   -1.8440   49.5250   C 0  0  0  0  0  0  0  0  0  0  0  0
  1  2  2  0  0  0  0
  2  3  1  0  0  0  0
  2 20  1  0  0  0  0
  3  4  1  0  0  0  0
  4  5  2  0  0  0  0
  4 14  1  0  0  0  0
  5  6  1  0  0  0  0
  6  7  1  0  0  0  0
  6 13  2  0  0  0  0
  7  8  1  0  0  0  0
  7 12  1  0  0  0  0
  8  9  2  0  0  0  0
  9 10  1  0  0  0  0
  9 11  1  0  0  0  0
 11 12  2  0  0  0  0
 13 15  1  0  0  0  0
 14 15  2  0  0  0  0
 15 16  1  0  0  0  0
 16 17  1  0  0  0  0
 16 18  1  0  0  0  0
 16 19  1  0  0  0  0
 20 21  2  0  0  0  0
 20 26  1  0  0  0  0
 21 22  1  0  0  0  0
 22 23  2  0  0  0  0
 23 24  1  0  0  0  0
 23 25  1  0  0  0  0
 25 26  2  0  0  0  0
 25 27  1  0  0  0  0
 27 28  1  0  0  0  0
 28 29  2  0  0  0  0
 28 33  1  0  0  0  0
 29 30  1  0  0  0  0
 30 31  2  0  0  0  0
 31 32  1  0  0  0  0
 32 33  2  0  0  0  0
 32 34  1  0  0  0  0
 34 35  2  0  0  0  0
 34 39  1  0  0  0  0
 35 36  1  0  0  0  0
 36 37  2  0  0  0  0
 37 38  1  0  0  0  0
 38 39  2  0  0  0  0
A    1
O17
A    2
C16
A    3
N14
A    4
C11
A    5
C9
A    6
C8
A    7
N51
A    8
C56
A    9
C55
A   10
C58
A   11
N54
A   12
C52
A   13
C6
A   14
C12
A   15
C5
A   16
C2
A   17
F4
A   18
F3
A   19
F1
A   20
C18
A   21
C25
A   22
C23
A   23
C22
A   24
C27
A   25
C21
A   26
C19
A   27
N31
A   28
C33
A   29
N40
A   30
C38
A   31
C36
A   32
C35
A   33
N34
A   34
C41
A   35
C49
A   36
C47
A   37
C45
A   38
N44
A   39
C42
M  END
>  <InstanceId>
3CS9_NIL_A_600

>  <ChemCompId>
NIL

>  <PdbId>
3CS9

>  <ChainId>
A

>  <ResidueNumber>
600

>  <InsertionCode>


>  <Model>
1

>  <AltIds>


>  <MissingHeavyAtoms>
0

>  <ObservedFormula>
C28 N7 O F3

>  <Name>
Nilotinib

>  <SystematicName>
4-methyl-N-[3-(4-methylimidazol-1-yl)-5-(trifluoromethyl)phenyl]-3-[(4-pyridin-3-ylpyrimidin-2-yl)amino]benzamide

>  <Synonyms>
4-methyl-N-[3-(4-methyl-1H-imidazol-1-yl)-5-(trifluoromethyl)phenyl]-3-[(4-pyridin-3-ylpyrimidin-2-yl)amino]benzamide

>  <Type>
NON-POLYMER

>  <Formula>
C28 H22 F3 N7 O

>  <MolecularWeight>
529.516

>  <ModifiedDate>
2011-06-04

>  <Parent>


>  <OneLetterCode>


>  <SubcomponentList>


>  <AmbiguousFlag>
N

>  <InChI>
InChI=1S/C28H22F3N7O/c1-17-5-6-19(10-25(17)37-27-33-9-7-24(36-27)20-4-3-8-32-14-20)26(39)35-22-11-21(28(29,30)31)12-23(13-22)38-15-18(2)34-16-38/h3-16H,1-2H3,(H,35,39)(H,33,36,37)

>  <InChIKey>
HHZIURLSWUIHRB-UHFFFAOYSA-N

>  <SMILES>
Cc1ccc(cc1Nc2nccc(n2)c3cccnc3)C(=O)Nc4cc(cc(c4)n5cc(nc5)C)C(F)(F)F

$$$$
3CS9_NIL_B_600
  RCSB PDB12061708133D
Coordinates from PDB:3CS9:B:600 Model:1 without hydrogens
 39 43  0  0  0  0            999 V2000
   22.9930   12.5330   86.4300   O 0  0  0  0  0  0  0  0  0  0  0  0
   23.4830   12.4820   87.5510   C 0  0  0  0  0  0  0  0  0  0  0  0
   23.0200   11.6350   88.5060   N 0  0  0  0  0  0  0  0  0  0  0  0
   21.8470   10.8690   88.3780   C 0  0  0  0  0  0  0  0  0  0  0  0
   21.2270   10.3580   89.5190   C 0  0  0  0  0  0  0  0  0  0  0  0
   20.0680    9.5700   89.4430   C 0  0  0  0  0  0  0  0  0  0  0  0
   19.4190    9.1250   90.6260   N 0  0  0  0  0  0  0  0  0  0  0  0
   19.9910    8.8320   91.8610   C 0  0  0  0  0  0  0  0  0  0  0  0
   18.9960    8.4430   92.7170   C 0  0  0  0  0  0  0  0  0  0  0  0
   19.2000    8.0560   94.1780   C 0  0  0  0  0  0  0  0  0  0  0  0
   17.7800    8.4700   92.0490   N 0  0  0  0  0  0  0  0  0  0  0  0
   18.0900    8.8830   90.8170   C 0  0  0  0  0  0  0  0  0  0  0  0
   19.5860    9.2450   88.1590   C 0  0  0  0  0  0  0  0  0  0  0  0
   21.3430   10.4780   87.1060   C 0  0  0  0  0  0  0  0  0  0  0  0
   20.2160    9.6870   86.9790   C 0  0  0  0  0  0  0  0  0  0  0  0
   19.6820    9.3030   85.5860   C 0  0  0  0  0  0  0  0  0  0  0  0
   20.6700    8.9870   84.6720   F 0  0  0  0  0  0  0  0  0  0  0  0
   18.9410    8.1490   85.6490   F 0  0  0  0  0  0  0  0  0  0  0  0
   18.9250   10.2690   85.0240   F 0  0  0  0  0  0  0  0  0  0  0  0
   24.8270   13.1270   87.7530   C 0  0  0  0  0  0  0  0  0  0  0  0
   25.6120   12.9010   88.9030   C 0  0  0  0  0  0  0  0  0  0  0  0
   26.9280   13.3880   89.0390   C 0  0  0  0  0  0  0  0  0  0  0  0
   27.5570   14.0530   87.9750   C 0  0  0  0  0  0  0  0  0  0  0  0
   28.9960   14.5540   88.1610   C 0  0  0  0  0  0  0  0  0  0  0  0
   26.8350   14.2210   86.7560   C 0  0  0  0  0  0  0  0  0  0  0  0
   25.4920   13.7540   86.6670   C 0  0  0  0  0  0  0  0  0  0  0  0
   27.3600   15.0760   85.7610   N 0  0  0  0  0  0  0  0  0  0  0  0
   26.8420   16.3890   85.7150   C 0  0  0  0  0  0  0  0  0  0  0  0
   25.9880   16.9840   86.5400   N 0  0  0  0  0  0  0  0  0  0  0  0
   25.5750   18.2440   86.2390   C 0  0  0  0  0  0  0  0  0  0  0  0
   25.9980   18.8880   85.1430   C 0  0  0  0  0  0  0  0  0  0  0  0
   26.8530   18.2350   84.3190   C 0  0  0  0  0  0  0  0  0  0  0  0
   27.2850   17.0100   84.6130   N 0  0  0  0  0  0  0  0  0  0  0  0
   27.4470   18.8380   83.1080   C 0  0  0  0  0  0  0  0  0  0  0  0
   27.1930   20.1930   82.7870   C 0  0  0  0  0  0  0  0  0  0  0  0
   27.8090   20.7510   81.6720   C 0  0  0  0  0  0  0  0  0  0  0  0
   28.6750   19.9550   80.9110   C 0  0  0  0  0  0  0  0  0  0  0  0
   28.9420   18.6630   81.2140   N 0  0  0  0  0  0  0  0  0  0  0  0
   28.3400   18.1150   82.2950   C 0  0  0  0  0  0  0  0  0  0  0  0
  1  2  2  0  0  0  0
  2  3  1  0  0  0  0
  2 20  1  0  0  0  0
  3  4  1  0  0  0  0
  4  5  2  0  0  0  0
  4 14  1  0  0  0  0
  5  6  1  0  0  0  0
  6  7  1  0  0  0  0
  6 13  2  0  0  0  0
  7  8  1  0  0  0  0
  7 12  1  0  0  0  0
  8  9  2  0  0  0  0
  9 10  1  0  0  0  0
  9 11  1  0  0  0  0
 11 12  2  0  0  0  0
 13 15  1  0  0  0  0
 14 15  2  0  0  0  0
 15 16  1  0  0  0  0
 16 17  1  0  0  0  0
 16 18  1  0  0  0  0
 16 19  1  0  0  0  0
 20 21  2  0  0  0  0
 20 26  1  0  0  0  0
 21 22  1  0  0  0  0
 22 23  2  0  0  0  0
 23 24  1  0  0  0  0
 23 25  1  0  0  0  0
 25 26  2  0  0  0  0
 25 27  1  0  0  0  0
 27 28  1  0  0  0  0
 28 29  2  0  0  0  0
 28 33  1  0  0  0  0
 29 30  1  0  0  0  0
 30 31  2  0  0  0  0
 31 32  1  0  0  0  0
 32 33  2  0  0  0  0
 32 34  1  0  0  0  0
 34 35  2  0  0  0  0
 34 39  1  0  0  0  0
 35 36  1  0  0  0  0
 36 37  2  0  0  0  0
 37 38  1  0  0  0  0
 38 39  2  0  0  0  0
A    1
O17
A    2
C16
A    3
N14
A    4
C11
A    5
C9
A    6
C8
A    7
N51
A    8
C56
A    9
C55
A   10
C58
A   11
N54
A   12
C52
A   13
C6
A   14
C12
A   15
C5
A   16
C2
A   17
F4
A   18
F3
A   19
F1
A   20
C18
A   21
C25
A   22
C23
A   23
C22
A   24
C27
A   25
C21
A   26
C19
A   27
N31
A   28
C33
A   29
N40
A   30
C38
A   31
C36
A   32
C35
A   33
N34
A   34
C41
A   35
C49
A   36
C47
A   37
C45
A   38
N44
A   39
C42
M  END
>  <InstanceId>
3CS9_NIL_B_600

>  <ChemCompId>
NIL

>  <PdbId>
3CS9

>  <ChainId>
B

>  <ResidueNumber>
600

>  <InsertionCode>


>  <Model>
1

>  <AltIds>


>  <MissingHeavyAtoms>
0

>  <ObservedFormula>
C28 N7 O F3

>  <Name>
Nilotinib

>  <SystematicName>
4-methyl-N-[3-(4-methylimidazol-1-yl)-5-(trifluoromethyl)phenyl]-3-[(4-pyridin-3-ylpyrimidin-2-yl)amino]benzamide

>  <Synonyms>
4-methyl-N-[3-(4-methyl-1H-imidazol-1-yl)-5-(trifluoromethyl)phenyl]-3-[(4-pyridin-3-ylpyrimidin-2-yl)amino]benzamide

>  <Type>
NON-POLYMER

>  <Formula>
C28 H22 F3 N7 O

>  <MolecularWeight>
529.516

>  <ModifiedDate>
2011-06-04

>  <Parent>


>  <OneLetterCode>


>  <SubcomponentList>


>  <AmbiguousFlag>
N

>  <InChI>
InChI=1S/C28H22F3N7O/c1-17-5-6-19(10-25(17)37-27-33-9-7-24(36-27)20-4-3-8-32-14-20)26(39)35-22-11-21(28(29,30)31)12-23(13-22)38-15-18(2)34-16-38/h3-16H,1-2H3,(H,35,39)(H,33,36,37)

>  <InChIKey>
HHZIURLSWUIHRB-UHFFFAOYSA-N

>  <SMILES>
Cc1ccc(cc1Nc2nccc(n2)c3cccnc3)C(=O)Nc4cc(cc(c4)n5cc(nc5)C)C(F)(F)F

$$$$
3CS9_NIL_C_600
  RCSB PDB12061708133D
Coordinates from PDB:3CS9:C:600 Model:1 without hydrogens
 39 43  0  0  0  0            999 V2000
   23.6190   58.3870  101.3840   O 0  0  0  0  0  0  0  0  0  0  0  0
   24.1220   59.0950  102.2310   C 0  0  0  0  0  0  0  0  0  0  0  0
   25.1710   58.7320  102.9640   N 0  0  0  0  0  0  0  0  0  0  0  0
   25.7770   57.4640  102.9480   C 0  0  0  0  0  0  0  0  0  0  0  0
   26.5410   57.0920  104.0490   C 0  0  0  0  0  0  0  0  0  0  0  0
   27.2270   55.8640  104.1090   C 0  0  0  0  0  0  0  0  0  0  0  0
   27.9700   55.5140  105.2580   N 0  0  0  0  0  0  0  0  0  0  0  0
   28.8180   56.3640  106.0120   C 0  0  0  0  0  0  0  0  0  0  0  0
   29.3500   55.5920  107.0240   C 0  0  0  0  0  0  0  0  0  0  0  0
   30.3290   56.0300  108.1170   C 0  0  0  0  0  0  0  0  0  0  0  0
   28.8390   54.3070  106.9250   N 0  0  0  0  0  0  0  0  0  0  0  0
   28.0120   54.2890  105.8550   C 0  0  0  0  0  0  0  0  0  0  0  0
   27.1520   55.0020  103.0080   C 0  0  0  0  0  0  0  0  0  0  0  0
   25.7580   56.6060  101.8250   C 0  0  0  0  0  0  0  0  0  0  0  0
   26.4150   55.3650  101.8560   C 0  0  0  0  0  0  0  0  0  0  0  0
   26.3300   54.4360  100.6690   C 0  0  0  0  0  0  0  0  0  0  0  0
   26.6020   55.0900   99.5050   F 0  0  0  0  0  0  0  0  0  0  0  0
   27.2130   53.4090  100.8120   F 0  0  0  0  0  0  0  0  0  0  0  0
   25.1000   53.8880  100.5160   F 0  0  0  0  0  0  0  0  0  0  0  0
   23.6810   60.5230  102.3350   C 0  0  0  0  0  0  0  0  0  0  0  0
   24.2210   61.4970  103.2090   C 0  0  0  0  0  0  0  0  0  0  0  0
   23.8180   62.8450  103.1770   C 0  0  0  0  0  0  0  0  0  0  0  0
   22.8280   63.2510  102.2460   C 0  0  0  0  0  0  0  0  0  0  0  0
   22.4280   64.6900  102.3080   C 0  0  0  0  0  0  0  0  0  0  0  0
   22.3300   62.3130  101.2990   C 0  0  0  0  0  0  0  0  0  0  0  0
   22.7480   60.9840  101.3800   C 0  0  0  0  0  0  0  0  0  0  0  0
   21.2360   62.5560  100.4470   N 0  0  0  0  0  0  0  0  0  0  0  0
   19.9470   62.2700  100.8970   C 0  0  0  0  0  0  0  0  0  0  0  0
   19.5450   61.7630  102.0430   N 0  0  0  0  0  0  0  0  0  0  0  0
   18.2140   61.6070  102.2040   C 0  0  0  0  0  0  0  0  0  0  0  0
   17.3300   61.9240  101.2380   C 0  0  0  0  0  0  0  0  0  0  0  0
   17.7740   62.4470  100.0760   C 0  0  0  0  0  0  0  0  0  0  0  0
   19.0880   62.5940   99.9020   N 0  0  0  0  0  0  0  0  0  0  0  0
   16.8680   62.7880   98.9310   C 0  0  0  0  0  0  0  0  0  0  0  0
   15.4790   62.6390   99.0280   C 0  0  0  0  0  0  0  0  0  0  0  0
   14.6450   62.9740   97.9330   C 0  0  0  0  0  0  0  0  0  0  0  0
   15.2380   63.4120   96.7730   C 0  0  0  0  0  0  0  0  0  0  0  0
   16.5780   63.5190   96.6350   N 0  0  0  0  0  0  0  0  0  0  0  0
   17.3480   63.2050   97.6940   C 0  0  0  0  0  0  0  0  0  0  0  0
  1  2  2  0  0  0  0
  2  3  1  0  0  0  0
  2 20  1  0  0  0  0
  3  4  1  0  0  0  0
  4  5  2  0  0  0  0
  4 14  1  0  0  0  0
  5  6  1  0  0  0  0
  6  7  1  0  0  0  0
  6 13  2  0  0  0  0
  7  8  1  0  0  0  0
  7 12  1  0  0  0  0
  8  9  2  0  0  0  0
  9 10  1  0  0  0  0
  9 11  1  0  0  0  0
 11 12  2  0  0  0  0
 13 15  1  0  0  0  0
 14 15  2  0  0  0  0
 15 16  1  0  0  0  0
 16 17  1  0  0  0  0
 16 18  1  0  0  0  0
 16 19  1  0  0  0  0
 20 21  2  0  0  0  0
 20 26  1  0  0  0  0
 21 22  1  0  0  0  0
 22 23  2  0  0  0  0
 23 24  1  0  0  0  0
 23 25  1  0  0  0  0
 25 26  2  0  0  0  0
 25 27  1  0  0  0  0
 27 28  1  0  0  0  0
 28 29  2  0  0  0  0
 28 33  1  0  0  0  0
 29 30  1  0  0  0  0
 30 31  2  0  0  0  0
 31 32  1  0  0  0  0
 32 33  2  0  0  0  0
 32 34  1  0  0  0  0
 34 35  2  0  0  0  0
 34 39  1  0  0  0  0
 35 36  1  0  0  0  0
 36 37  2  0  0  0  0
 37 38  1  0  0  0  0
 38 39  2  0  0  0  0
A    1
O17
A    2
C16
A    3
N14
A    4
C11
A    5
C9
A    6
C8
A    7
N51
A    8
C56
A    9
C55
A   10
C58
A   11
N54
A   12
C52
A   13
C6
A   14
C12
A   15
C5
A   16
C2
A   17
F4
A   18
F3
A   19
F1
A   20
C18
A   21
C25
A   22
C23
A   23
C22
A   24
C27
A   25
C21
A   26
C19
A   27
N31
A   28
C33
A   29
N40
A   30
C38
A   31
C36
A   32
C35
A   33
N34
A   34
C41
A   35
C49
A   36
C47
A   37
C45
A   38
N44
A   39
C42
M  END
>  <InstanceId>
3CS9_NIL_C_600

>  <ChemCompId>
NIL

>  <PdbId>
3CS9

>  <ChainId>
C

>  <ResidueNumber>
600

>  <InsertionCode>


>  <Model>
1

>  <AltIds>


>  <MissingHeavyAtoms>
0

>  <ObservedFormula>
C28 N7 O F3

>  <Name>
Nilotinib

>  <SystematicName>
4-methyl-N-[3-(4-methylimidazol-1-yl)-5-(trifluoromethyl)phenyl]-3-[(4-pyridin-3-ylpyrimidin-2-yl)amino]benzamide

>  <Synonyms>
4-methyl-N-[3-(4-methyl-1H-imidazol-1-yl)-5-(trifluoromethyl)phenyl]-3-[(4-pyridin-3-ylpyrimidin-2-yl)amino]benzamide

>  <Type>
NON-POLYMER

>  <Formula>
C28 H22 F3 N7 O

>  <MolecularWeight>
529.516

>  <ModifiedDate>
2011-06-04

>  <Parent>


>  <OneLetterCode>


>  <SubcomponentList>


>  <AmbiguousFlag>
N

>  <InChI>
InChI=1S/C28H22F3N7O/c1-17-5-6-19(10-25(17)37-27-33-9-7-24(36-27)20-4-3-8-32-14-20)26(39)35-22-11-21(28(29,30)31)12-23(13-22)38-15-18(2)34-16-38/h3-16H,1-2H3,(H,35,39)(H,33,36,37)

>  <InChIKey>
HHZIURLSWUIHRB-UHFFFAOYSA-N

>  <SMILES>
Cc1ccc(cc1Nc2nccc(n2)c3cccnc3)C(=O)Nc4cc(cc(c4)n5cc(nc5)C)C(F)(F)F

$$$$
3CS9_NIL_D_600
  RCSB PDB12061708133D
Coordinates from PDB:3CS9:D:600 Model:1 without hydrogens
 39 43  0  0  0  0            999 V2000
   20.8950   39.1740   14.0370   O 0  0  0  0  0  0  0  0  0  0  0  0
   20.1830   39.6480   14.9410   C 0  0  0  0  0  0  0  0  0  0  0  0
   20.3160   40.8830   15.5010   N 0  0  0  0  0  0  0  0  0  0  0  0
   21.3540   41.7820   15.2460   C 0  0  0  0  0  0  0  0  0  0  0  0
   21.6540   42.7880   16.1990   C 0  0  0  0  0  0  0  0  0  0  0  0
   22.7120   43.7270   15.9890   C 0  0  0  0  0  0  0  0  0  0  0  0
   23.0470   44.7120   16.9470   N 0  0  0  0  0  0  0  0  0  0  0  0
   22.1980   45.2940   17.8830   C 0  0  0  0  0  0  0  0  0  0  0  0
   22.9290   46.1650   18.6540   C 0  0  0  0  0  0  0  0  0  0  0  0
   22.3830   47.0240   19.8130   C 0  0  0  0  0  0  0  0  0  0  0  0
   24.2480   46.1470   18.2270   N 0  0  0  0  0  0  0  0  0  0  0  0
   24.2680   45.2600   17.2010   C 0  0  0  0  0  0  0  0  0  0  0  0
   23.4390   43.6070   14.7930   C 0  0  0  0  0  0  0  0  0  0  0  0
   22.0690   41.7320   14.0430   C 0  0  0  0  0  0  0  0  0  0  0  0
   23.1260   42.6300   13.8400   C 0  0  0  0  0  0  0  0  0  0  0  0
   23.8930   42.5380   12.5510   C 0  0  0  0  0  0  0  0  0  0  0  0
   23.0060   42.5060   11.4960   F 0  0  0  0  0  0  0  0  0  0  0  0
   24.6870   43.6420   12.3790   F 0  0  0  0  0  0  0  0  0  0  0  0
   24.6090   41.3780   12.4940   F 0  0  0  0  0  0  0  0  0  0  0  0
   18.9470   38.9060   15.3820   C 0  0  0  0  0  0  0  0  0  0  0  0
   18.1330   39.2630   16.4830   C 0  0  0  0  0  0  0  0  0  0  0  0
   16.9450   38.5500   16.7910   C 0  0  0  0  0  0  0  0  0  0  0  0
   16.5060   37.4830   16.0020   C 0  0  0  0  0  0  0  0  0  0  0  0
   15.2210   36.7430   16.3700   C 0  0  0  0  0  0  0  0  0  0  0  0
   17.2440   37.1830   14.8350   C 0  0  0  0  0  0  0  0  0  0  0  0
   18.4460   37.8720   14.5750   C 0  0  0  0  0  0  0  0  0  0  0  0
   16.9440   35.9990   14.1520   N 0  0  0  0  0  0  0  0  0  0  0  0
   17.6150   34.8810   14.6890   C 0  0  0  0  0  0  0  0  0  0  0  0
   18.3800   34.7470   15.7780   N 0  0  0  0  0  0  0  0  0  0  0  0
   18.9340   33.5080   16.0130   C 0  0  0  0  0  0  0  0  0  0  0  0
   18.7440   32.4420   15.1820   C 0  0  0  0  0  0  0  0  0  0  0  0
   17.9620   32.6500   14.0980   C 0  0  0  0  0  0  0  0  0  0  0  0
   17.4250   33.8590   13.8690   N 0  0  0  0  0  0  0  0  0  0  0  0
   17.6090   31.6440   13.0670   C 0  0  0  0  0  0  0  0  0  0  0  0
   17.9220   30.2690   13.2200   C 0  0  0  0  0  0  0  0  0  0  0  0
   17.5580   29.3780   12.1930   C 0  0  0  0  0  0  0  0  0  0  0  0
   16.8920   29.8760   11.0740   C 0  0  0  0  0  0  0  0  0  0  0  0
   16.5730   31.1760   10.9240   N 0  0  0  0  0  0  0  0  0  0  0  0
   16.9210   32.0380   11.8980   C 0  0  0  0  0  0  0  0  0  0  0  0
  1  2  2  0  0  0  0
  2  3  1  0  0  0  0
  2 20  1  0  0  0  0
  3  4  1  0  0  0  0
  4  5  2  0  0  0  0
  4 14  1  0  0  0  0
  5  6  1  0  0  0  0
  6  7  1  0  0  0  0
  6 13  2  0  0  0  0
  7  8  1  0  0  0  0
  7 12  1  0  0  0  0
  8  9  2  0  0  0  0
  9 10  1  0  0  0  0
  9 11  1  0  0  0  0
 11 12  2  0  0  0  0
 13 15  1  0  0  0  0
 14 15  2  0  0  0  0
 15 16  1  0  0  0  0
 16 17  1  0  0  0  0
 16 18  1  0  0  0  0
 16 19  1  0  0  0  0
 20 21  2  0  0  0  0
 20 26  1  0  0  0  0
 21 22  1  0  0  0  0
 22 23  2  0  0  0  0
 23 24  1  0  0  0  0
 23 25  1  0  0  0  0
 25 26  2  0  0  0  0
 25 27  1  0  0  0  0
 27 28  1  0  0  0  0
 28 29  2  0  0  0  0
 28 33  1  0  0  0  0
 29 30  1  0  0  0  0
 30 31  2  0  0  0  0
 31 32  1  0  0  0  0
 32 33  2  0  0  0  0
 32 34  1  0  0  0  0
 34 35  2  0  0  0  0
 34 39  1  0  0  0  0
 35 36  1  0  0  0  0
 36 37  2  0  0  0  0
 37 38  1  0  0  0  0
 38 39  2  0  0  0  0
A    1
O17
A    2
C16
A    3
N14
A    4
C11
A    5
C9
A    6
C8
A    7
N51
A    8
C56
A    9
C55
A   10
C58
A   11
N54
A   12
C52
A   13
C6
A   14
C12
A   15
C5
A   16
C2
A   17
F4
A   18
F3
A   19
F1
A   20
C18
A   21
C25
A   22
C23
A   23
C22
A   24
C27
A   25
C21
A   26
C19
A   27
N31
A   28
C33
A   29
N40
A   30
C38
A   31
C36
A   32
C35
A   33
N34
A   34
C41
A   35
C49
A   36
C47
A   37
C45
A   38
N44
A   39
C42
M  END
>  <InstanceId>
3CS9_NIL_D_600

>  <ChemCompId>
NIL

>  <PdbId>
3CS9

>  <ChainId>
D

>  <ResidueNumber>
600

>  <InsertionCode>


>  <Model>
1

>  <AltIds>


>  <MissingHeavyAtoms>
0

>  <ObservedFormula>
C28 N7 O F3

>  <Name>
Nilotinib

>  <SystematicName>
4-methyl-N-[3-(4-methylimidazol-1-yl)-5-(trifluoromethyl)phenyl]-3-[(4-pyridin-3-ylpyrimidin-2-yl)amino]benzamide

>  <Synonyms>
4-methyl-N-[3-(4-methyl-1H-imidazol-1-yl)-5-(trifluoromethyl)phenyl]-3-[(4-pyridin-3-ylpyrimidin-2-yl)amino]benzamide

>  <Type>
NON-POLYMER

>  <Formula>
C28 H22 F3 N7 O

>  <MolecularWeight>
529.516

>  <ModifiedDate>
2011-06-04

>  <Parent>


>  <OneLetterCode>


>  <SubcomponentList>


>  <AmbiguousFlag>
N

>  <InChI>
InChI=1S/C28H22F3N7O/c1-17-5-6-19(10-25(17)37-27-33-9-7-24(36-27)20-4-3-8-32-14-20)26(39)35-22-11-21(28(29,30)31)12-23(13-22)38-15-18(2)34-16-38/h3-16H,1-2H3,(H,35,39)(H,33,36,37)

>  <InChIKey>
HHZIURLSWUIHRB-UHFFFAOYSA-N

>  <SMILES>
Cc1ccc(cc1Nc2nccc(n2)c3cccnc3)C(=O)Nc4cc(cc(c4)n5cc(nc5)C)C(F)(F)F

$$$$
