2G2H_P16_A_532
  RCSB PDB12061705383D
Coordinates from PDB:2G2H:A:532 Model:1 without hydrogens
 29 32  0  0  0  0            999 V2000
  -44.4210   11.4390  -27.2950   O 0  0  0  0  0  0  0  0  0  0  0  0
  -43.6300   10.6920  -26.4180   C 0  0  0  0  0  0  0  0  0  0  0  0
  -42.5210   11.5000  -25.7510   C 0  0  0  0  0  0  0  0  0  0  0  0
  -42.8480   12.5780  -24.8410   C 0  0  0  0  0  0  0  0  0  0  0  0
  -41.8130   13.3290  -24.2160   C 0  0  0  0  0  0  0  0  0  0  0  0
  -40.4410   13.0340  -24.4730   C 0  0  0  0  0  0  0  0  0  0  0  0
  -40.0860   11.9600  -25.3800   C 0  0  0  0  0  0  0  0  0  0  0  0
  -38.7390   11.5870  -25.7100   N 0  0  0  0  0  0  0  0  0  0  0  0
  -37.5600   12.2630  -25.4470   C 0  0  0  0  0  0  0  0  0  0  0  0
  -36.4040   11.6400  -25.9260   N 0  0  0  0  0  0  0  0  0  0  0  0
  -35.2240   12.2770  -25.7080   C 0  0  0  0  0  0  0  0  0  0  0  0
  -35.1290   13.5350  -25.0140   C 0  0  0  0  0  0  0  0  0  0  0  0
  -33.8780   14.2430  -24.7820   C 0  0  0  0  0  0  0  0  0  0  0  0
  -33.8560   15.4470  -24.1150   C 0  0  0  0  0  0  0  0  0  0  0  0
  -35.1390   16.0650  -23.6060   C 0  0  0  0  0  0  0  0  0  0  0  0
  -35.2160   17.1320  -23.0060   O 0  0  0  0  0  0  0  0  0  0  0  0
  -36.3840   15.3320  -23.8550   N 0  0  0  0  0  0  0  0  0  0  0  0
  -36.3920   14.1010  -24.5470   C 0  0  0  0  0  0  0  0  0  0  0  0
  -37.5700   13.4500  -24.7740   N 0  0  0  0  0  0  0  0  0  0  0  0
  -37.6830   15.8990  -23.3760   C 0  0  0  0  0  0  0  0  0  0  0  0
  -32.5910   16.2060  -23.8800   C 0  0  0  0  0  0  0  0  0  0  0  0
  -31.7530   15.9920  -22.7160   C 0  0  0  0  0  0  0  0  0  0  0  0
  -32.1480   14.8190  -21.4890  Cl 0  0  0  0  0  0  0  0  0  0  0  0
  -30.5510   16.7510  -22.5340   C 0  0  0  0  0  0  0  0  0  0  0  0
  -30.1600   17.7280  -23.4920   C 0  0  0  0  0  0  0  0  0  0  0  0
  -30.9510   17.9650  -24.6470   C 0  0  0  0  0  0  0  0  0  0  0  0
  -32.1520   17.2130  -24.8390   C 0  0  0  0  0  0  0  0  0  0  0  0
  -33.0750   17.5680  -26.3030  Cl 0  0  0  0  0  0  0  0  0  0  0  0
  -41.1430   11.1990  -26.0160   C 0  0  0  0  0  0  0  0  0  0  0  0
  1  2  1  0  0  0  0
  2  3  1  0  0  0  0
  3  4  2  0  0  0  0
  3 29  1  0  0  0  0
  4  5  1  0  0  0  0
  5  6  2  0  0  0  0
  6  7  1  0  0  0  0
  7  8  1  0  0  0  0
  7 29  2  0  0  0  0
  8  9  1  0  0  0  0
  9 10  2  0  0  0  0
  9 19  1  0  0  0  0
 10 11  1  0  0  0  0
 11 12  2  0  0  0  0
 12 13  1  0  0  0  0
 12 18  1  0  0  0  0
 13 14  2  0  0  0  0
 14 15  1  0  0  0  0
 14 21  1  0  0  0  0
 15 16  2  0  0  0  0
 15 17  1  0  0  0  0
 17 18  1  0  0  0  0
 17 20  1  0  0  0  0
 18 19  2  0  0  0  0
 21 22  2  0  0  0  0
 21 27  1  0  0  0  0
 22 23  1  0  0  0  0
 22 24  1  0  0  0  0
 24 25  2  0  0  0  0
 25 26  1  0  0  0  0
 26 27  2  0  0  0  0
 27 28  1  0  0  0  0
A    1
O1
A    2
C2
A    3
C3
A    4
C4
A    5
C5
A    6
C6
A    7
C7
A    8
N9
A    9
C10
A   10
N11
A   11
C12
A   12
C13
A   13
C16
A   14
C17
A   15
C18
A   16
O21
A   17
N19
A   18
C14
A   19
N15
A   20
C20
A   21
C22
A   22
C27
A   23
CL28
A   24
C26
A   25
C25
A   26
C24
A   27
C23
A   28
CL29
A   29
C8
M  END
>  <InstanceId>
2G2H_P16_A_532

>  <ChemCompId>
P16

>  <PdbId>
2G2H

>  <ChainId>
A

>  <ResidueNumber>
532

>  <InsertionCode>


>  <Model>
1

>  <AltIds>


>  <MissingHeavyAtoms>
0

>  <ObservedFormula>
C21 N4 O2 Cl2

>  <Name>
6-(2,6-DICHLOROPHENYL)-2-{[3-(HYDROXYMETHYL)PHENYL]AMINO}-8-METHYLPYRIDO[2,3-D]PYRIMIDIN-7(8H)-ONE

>  <SystematicName>
6-(2,6-dichlorophenyl)-2-[[3-(hydroxymethyl)phenyl]amino]-8-methyl-pyrido[6,5-d]pyrimidin-7-one

>  <Synonyms>
PD166326

>  <Type>
NON-POLYMER

>  <Formula>
C21 H16 Cl2 N4 O2

>  <MolecularWeight>
427.283

>  <ModifiedDate>
2011-06-04

>  <Parent>


>  <OneLetterCode>


>  <SubcomponentList>


>  <AmbiguousFlag>
N

>  <InChI>
InChI=1S/C21H16Cl2N4O2/c1-27-19-13(9-15(20(27)29)18-16(22)6-3-7-17(18)23)10-24-21(26-19)25-14-5-2-4-12(8-14)11-28/h2-10,28H,11H2,1H3,(H,24,25,26)

>  <InChIKey>
ZIQFYVPVJZEOFS-UHFFFAOYSA-N

>  <SMILES>
CN1c2c(cnc(n2)Nc3cccc(c3)CO)C=C(C1=O)c4c(cccc4Cl)Cl

$$$$
2G2H_P16_B_532
  RCSB PDB12061705383D
Coordinates from PDB:2G2H:B:532 Model:1 without hydrogens
 29 32  0  0  0  0            999 V2000
  -31.7740   47.9490   -3.7900   O 0  0  0  0  0  0  0  0  0  0  0  0
  -30.8780   47.1310   -4.4880   C 0  0  0  0  0  0  0  0  0  0  0  0
  -30.2530   47.8120   -5.7060   C 0  0  0  0  0  0  0  0  0  0  0  0
  -29.1670   48.7520   -5.5400   C 0  0  0  0  0  0  0  0  0  0  0  0
  -28.5870   49.3850   -6.6790   C 0  0  0  0  0  0  0  0  0  0  0  0
  -29.0610   49.1020   -7.9980   C 0  0  0  0  0  0  0  0  0  0  0  0
  -30.1460   48.1660   -8.1890   C 0  0  0  0  0  0  0  0  0  0  0  0
  -30.7000   47.8130   -9.4640   N 0  0  0  0  0  0  0  0  0  0  0  0
  -30.6070   48.4740  -10.6820   C 0  0  0  0  0  0  0  0  0  0  0  0
  -31.2880   47.8550  -11.7400   N 0  0  0  0  0  0  0  0  0  0  0  0
  -31.2410   48.4710  -12.9530   C 0  0  0  0  0  0  0  0  0  0  0  0
  -30.5280   49.7070  -13.1760   C 0  0  0  0  0  0  0  0  0  0  0  0
  -30.4690   50.3940  -14.4590   C 0  0  0  0  0  0  0  0  0  0  0  0
  -29.7720   51.5780  -14.6070   C 0  0  0  0  0  0  0  0  0  0  0  0
  -29.0420   52.1930  -13.4280   C 0  0  0  0  0  0  0  0  0  0  0  0
  -28.3960   53.2430  -13.4640   O 0  0  0  0  0  0  0  0  0  0  0  0
  -29.1210   51.4790  -12.1450   N 0  0  0  0  0  0  0  0  0  0  0  0
  -29.8450   50.2690  -12.0110   C 0  0  0  0  0  0  0  0  0  0  0  0
  -29.9040   49.6350  -10.7990   N 0  0  0  0  0  0  0  0  0  0  0  0
  -28.4260   52.0370  -10.9480   C 0  0  0  0  0  0  0  0  0  0  0  0
  -29.7130   52.3030  -15.9140   C 0  0  0  0  0  0  0  0  0  0  0  0
  -28.6650   52.0510  -16.9000   C 0  0  0  0  0  0  0  0  0  0  0  0
  -27.3900   50.8770  -16.6380  Cl 0  0  0  0  0  0  0  0  0  0  0  0
  -28.6430   52.7730  -18.1400   C 0  0  0  0  0  0  0  0  0  0  0  0
  -29.6470   53.7460  -18.4290   C 0  0  0  0  0  0  0  0  0  0  0  0
  -30.6860   54.0180  -17.4950   C 0  0  0  0  0  0  0  0  0  0  0  0
  -30.7200   53.3060  -16.2570   C 0  0  0  0  0  0  0  0  0  0  0  0
  -32.0480   53.7080  -15.1620  Cl 0  0  0  0  0  0  0  0  0  0  0  0
  -30.7340   47.5250   -7.0250   C 0  0  0  0  0  0  0  0  0  0  0  0
  1  2  1  0  0  0  0
  2  3  1  0  0  0  0
  3  4  2  0  0  0  0
  3 29  1  0  0  0  0
  4  5  1  0  0  0  0
  5  6  2  0  0  0  0
  6  7  1  0  0  0  0
  7  8  1  0  0  0  0
  7 29  2  0  0  0  0
  8  9  1  0  0  0  0
  9 10  2  0  0  0  0
  9 19  1  0  0  0  0
 10 11  1  0  0  0  0
 11 12  2  0  0  0  0
 12 13  1  0  0  0  0
 12 18  1  0  0  0  0
 13 14  2  0  0  0  0
 14 15  1  0  0  0  0
 14 21  1  0  0  0  0
 15 16  2  0  0  0  0
 15 17  1  0  0  0  0
 17 18  1  0  0  0  0
 17 20  1  0  0  0  0
 18 19  2  0  0  0  0
 21 22  2  0  0  0  0
 21 27  1  0  0  0  0
 22 23  1  0  0  0  0
 22 24  1  0  0  0  0
 24 25  2  0  0  0  0
 25 26  1  0  0  0  0
 26 27  2  0  0  0  0
 27 28  1  0  0  0  0
A    1
O1
A    2
C2
A    3
C3
A    4
C4
A    5
C5
A    6
C6
A    7
C7
A    8
N9
A    9
C10
A   10
N11
A   11
C12
A   12
C13
A   13
C16
A   14
C17
A   15
C18
A   16
O21
A   17
N19
A   18
C14
A   19
N15
A   20
C20
A   21
C22
A   22
C27
A   23
CL28
A   24
C26
A   25
C25
A   26
C24
A   27
C23
A   28
CL29
A   29
C8
M  END
>  <InstanceId>
2G2H_P16_B_532

>  <ChemCompId>
P16

>  <PdbId>
2G2H

>  <ChainId>
B

>  <ResidueNumber>
532

>  <InsertionCode>


>  <Model>
1

>  <AltIds>


>  <MissingHeavyAtoms>
0

>  <ObservedFormula>
C21 N4 O2 Cl2

>  <Name>
6-(2,6-DICHLOROPHENYL)-2-{[3-(HYDROXYMETHYL)PHENYL]AMINO}-8-METHYLPYRIDO[2,3-D]PYRIMIDIN-7(8H)-ONE

>  <SystematicName>
6-(2,6-dichlorophenyl)-2-[[3-(hydroxymethyl)phenyl]amino]-8-methyl-pyrido[6,5-d]pyrimidin-7-one

>  <Synonyms>
PD166326

>  <Type>
NON-POLYMER

>  <Formula>
C21 H16 Cl2 N4 O2

>  <MolecularWeight>
427.283

>  <ModifiedDate>
2011-06-04

>  <Parent>


>  <OneLetterCode>


>  <SubcomponentList>


>  <AmbiguousFlag>
N

>  <InChI>
InChI=1S/C21H16Cl2N4O2/c1-27-19-13(9-15(20(27)29)18-16(22)6-3-7-17(18)23)10-24-21(26-19)25-14-5-2-4-12(8-14)11-28/h2-10,28H,11H2,1H3,(H,24,25,26)

>  <InChIKey>
ZIQFYVPVJZEOFS-UHFFFAOYSA-N

>  <SMILES>
CN1c2c(cnc(n2)Nc3cccc(c3)CO)C=C(C1=O)c4c(cccc4Cl)Cl

$$$$
