2FO0_P16_A_2
  RCSB PDB12061705353D
Coordinates from PDB:2FO0:A:2 Model:1 without hydrogens
 29 32  0  0  0  0            999 V2000
    3.1060    8.6960   11.1860   O 0  0  0  0  0  0  0  0  0  0  0  0
    4.3140    8.9470   11.8650   C 0  0  0  0  0  0  0  0  0  0  0  0
    4.1400    9.4350   13.3130   C 0  0  0  0  0  0  0  0  0  0  0  0
    4.5570    8.6000   14.4160   C 0  0  0  0  0  0  0  0  0  0  0  0
    4.4010    9.0490   15.7570   C 0  0  0  0  0  0  0  0  0  0  0  0
    3.8310   10.3250   16.0440   C 0  0  0  0  0  0  0  0  0  0  0  0
    3.4050   11.1790   14.9610   C 0  0  0  0  0  0  0  0  0  0  0  0
    2.8010   12.4650   15.1300   N 0  0  0  0  0  0  0  0  0  0  0  0
    2.0890   12.9590   16.2240   C 0  0  0  0  0  0  0  0  0  0  0  0
    1.5650   14.2520   16.0740   N 0  0  0  0  0  0  0  0  0  0  0  0
    0.8340   14.7480   17.1000   C 0  0  0  0  0  0  0  0  0  0  0  0
    0.5840   14.0100   18.3100   C 0  0  0  0  0  0  0  0  0  0  0  0
   -0.2160   14.5010   19.4260   C 0  0  0  0  0  0  0  0  0  0  0  0
   -0.4040   13.7320   20.5600   C 0  0  0  0  0  0  0  0  0  0  0  0
    0.2160   12.3630   20.6620   C 0  0  0  0  0  0  0  0  0  0  0  0
    0.1140   11.6140   21.6250   O 0  0  0  0  0  0  0  0  0  0  0  0
    1.0110   11.9030   19.5240   N 0  0  0  0  0  0  0  0  0  0  0  0
    1.1830   12.6870   18.3720   C 0  0  0  0  0  0  0  0  0  0  0  0
    1.9140   12.2010   17.3260   N 0  0  0  0  0  0  0  0  0  0  0  0
    1.6390   10.5590   19.5640   C 0  0  0  0  0  0  0  0  0  0  0  0
   -1.2370   14.1900   21.7080   C 0  0  0  0  0  0  0  0  0  0  0  0
   -0.6620   14.7620   22.9050   C 0  0  0  0  0  0  0  0  0  0  0  0
    1.0620   14.9590   23.0840  Cl 0  0  0  0  0  0  0  0  0  0  0  0
   -1.5020   15.1870   23.9890   C 0  0  0  0  0  0  0  0  0  0  0  0
   -2.9190   15.0500   23.8980   C 0  0  0  0  0  0  0  0  0  0  0  0
   -3.5140   14.4950   22.7380   C 0  0  0  0  0  0  0  0  0  0  0  0
   -2.6830   14.0730   21.6630   C 0  0  0  0  0  0  0  0  0  0  0  0
   -3.5060   13.3960   20.2580  Cl 0  0  0  0  0  0  0  0  0  0  0  0
    3.5670   10.7150   13.5920   C 0  0  0  0  0  0  0  0  0  0  0  0
  1  2  1  0  0  0  0
  2  3  1  0  0  0  0
  3  4  2  0  0  0  0
  3 29  1  0  0  0  0
  4  5  1  0  0  0  0
  5  6  2  0  0  0  0
  6  7  1  0  0  0  0
  7  8  1  0  0  0  0
  7 29  2  0  0  0  0
  8  9  1  0  0  0  0
  9 10  2  0  0  0  0
  9 19  1  0  0  0  0
 10 11  1  0  0  0  0
 11 12  2  0  0  0  0
 12 13  1  0  0  0  0
 12 18  1  0  0  0  0
 13 14  2  0  0  0  0
 14 15  1  0  0  0  0
 14 21  1  0  0  0  0
 15 16  2  0  0  0  0
 15 17  1  0  0  0  0
 17 18  1  0  0  0  0
 17 20  1  0  0  0  0
 18 19  2  0  0  0  0
 21 22  2  0  0  0  0
 21 27  1  0  0  0  0
 22 23  1  0  0  0  0
 22 24  1  0  0  0  0
 24 25  2  0  0  0  0
 25 26  1  0  0  0  0
 26 27  2  0  0  0  0
 27 28  1  0  0  0  0
A    1
O1
A    2
C2
A    3
C3
A    4
C4
A    5
C5
A    6
C6
A    7
C7
A    8
N9
A    9
C10
A   10
N11
A   11
C12
A   12
C13
A   13
C16
A   14
C17
A   15
C18
A   16
O21
A   17
N19
A   18
C14
A   19
N15
A   20
C20
A   21
C22
A   22
C27
A   23
CL28
A   24
C26
A   25
C25
A   26
C24
A   27
C23
A   28
CL29
A   29
C8
M  END
>  <InstanceId>
2FO0_P16_A_2

>  <ChemCompId>
P16

>  <PdbId>
2FO0

>  <ChainId>
A

>  <ResidueNumber>
2

>  <InsertionCode>


>  <Model>
1

>  <AltIds>


>  <MissingHeavyAtoms>
0

>  <ObservedFormula>
C21 N4 O2 Cl2

>  <Name>
6-(2,6-DICHLOROPHENYL)-2-{[3-(HYDROXYMETHYL)PHENYL]AMINO}-8-METHYLPYRIDO[2,3-D]PYRIMIDIN-7(8H)-ONE

>  <SystematicName>
6-(2,6-dichlorophenyl)-2-[[3-(hydroxymethyl)phenyl]amino]-8-methyl-pyrido[6,5-d]pyrimidin-7-one

>  <Synonyms>
PD166326

>  <Type>
NON-POLYMER

>  <Formula>
C21 H16 Cl2 N4 O2

>  <MolecularWeight>
427.283

>  <ModifiedDate>
2011-06-04

>  <Parent>


>  <OneLetterCode>


>  <SubcomponentList>


>  <AmbiguousFlag>
N

>  <InChI>
InChI=1S/C21H16Cl2N4O2/c1-27-19-13(9-15(20(27)29)18-16(22)6-3-7-17(18)23)10-24-21(26-19)25-14-5-2-4-12(8-14)11-28/h2-10,28H,11H2,1H3,(H,24,25,26)

>  <InChIKey>
ZIQFYVPVJZEOFS-UHFFFAOYSA-N

>  <SMILES>
CN1c2c(cnc(n2)Nc3cccc(c3)CO)C=C(C1=O)c4c(cccc4Cl)Cl

$$$$
