6BL8_PVB_A_601
  RCSB PDB03171809573D
Coordinates from PDB:6BL8:A:601 Model:1 without hydrogens
 30 32  0  0  0  0            999 V2000
   39.8400   51.8990    4.9130   N 0  0  0  0  0  0  0  0  0  0  0  0
   34.6370   51.2270    4.7690   C 0  0  0  0  0  0  0  0  0  0  0  0
   35.8420   51.9920    4.3850   N 0  0  0  0  0  0  0  0  0  0  0  0
   37.1740   51.7640    4.7160   C 0  0  0  0  0  0  0  0  0  0  0  0
   37.8170   50.8610    5.5490   N 0  0  0  0  0  0  0  0  0  0  0  0
   39.1610   50.9990    5.5960   C 0  0  0  0  0  0  0  0  0  0  0  0
   39.2610   52.7240    4.0730   C 0  0  0  0  0  0  0  0  0  0  0  0
   37.8450   52.6880    3.9880   C 0  0  0  0  0  0  0  0  0  0  0  0
   37.0820   53.4480    3.2800   N 0  0  0  0  0  0  0  0  0  0  0  0
   35.8780   53.0440    3.5280   C 0  0  0  0  0  0  0  0  0  0  0  0
   40.0310   53.5060    3.1440   N 0  0  0  0  0  0  0  0  0  0  0  0
   41.4680   53.7190    3.0230   C 0  0  0  0  0  0  0  0  0  0  0  0
   41.9890   54.9000    2.5150   C 0  0  0  0  0  0  0  0  0  0  0  0
   43.3450   55.0570    2.3300   C 0  0  0  0  0  0  0  0  0  0  0  0
   44.2110   54.0760    2.6820   C 0  0  0  0  0  0  0  0  0  0  0  0
   43.6960   52.9450    3.2310   C 0  0  0  0  0  0  0  0  0  0  0  0
   44.7070   51.8150    3.9440  Cl 0  0  0  0  0  0  0  0  0  0  0  0
   42.3870   52.7360    3.3200   C 0  0  0  0  0  0  0  0  0  0  0  0
   45.6560   54.2460    2.4030   C 0  0  0  0  0  0  0  0  0  0  0  0
   46.6350   53.9160    3.1720   O 0  0  0  0  0  0  0  0  0  0  0  0
   46.0930   54.6930    1.4690   O 0  0  0  0  0  0  0  0  0  0  0  0
   39.9930   50.1850    6.3340   N 0  0  0  0  0  0  0  0  0  0  0  0
   41.4720   50.3070    6.4550   C 0  0  0  0  0  0  0  0  0  0  0  0
   42.2200   48.9520    6.2410   C 0  0  0  0  0  0  0  0  0  0  0  0
   43.3590   48.7570    7.1800   C 0  0  0  0  0  0  0  0  0  0  0  0
   41.3260   47.7850    6.2870   C 0  0  0  0  0  0  0  0  0  0  0  0
   41.9410   51.1470    7.6870   C 0  0  0  0  0  0  0  0  0  0  0  0
   41.2870   50.8680    8.8060   O 0  0  0  0  0  0  0  0  0  0  0  0
   34.2140   51.5600    6.1520   C 0  0  0  0  0  0  0  0  0  0  0  0
   34.8800   49.7850    4.6260   C 0  0  0  0  0  0  0  0  0  0  0  0
  1  6  1  0  0  0  0
  1  7  2  0  0  0  0
  2  3  1  0  0  0  0
  2 29  1  0  0  0  0
  2 30  1  0  0  0  0
  3  4  1  0  0  0  0
  3 10  1  0  0  0  0
  4  5  1  0  0  0  0
  4  8  2  0  0  0  0
  5  6  2  0  0  0  0
  6 22  1  0  0  0  0
  7  8  1  0  0  0  0
  7 11  1  0  0  0  0
  8  9  1  0  0  0  0
  9 10  2  0  0  0  0
 11 12  1  0  0  0  0
 12 13  2  0  0  0  0
 12 18  1  0  0  0  0
 13 14  1  0  0  0  0
 14 15  2  0  0  0  0
 15 16  1  0  0  0  0
 15 19  1  0  0  0  0
 16 17  1  0  0  0  0
 16 18  2  0  0  0  0
 19 20  1  0  0  0  0
 19 21  2  0  0  0  0
 22 23  1  0  0  0  0
 23 24  1  0  0  0  0
 23 27  1  0  0  0  0
 24 25  1  0  0  0  0
 24 26  1  0  0  0  0
 27 28  1  0  0  0  0
A    1
N1
A    2
C9
A    3
N9
A    4
C4
A    5
N3
A    6
C2
A    7
C6
A    8
C5
A    9
N7
A   10
C8
A   11
N6
A   12
C1A
A   13
C2A
A   14
C3A
A   15
C4A
A   16
C5A
A   17
CL1
A   18
C6A
A   19
CX
A   20
OX1
A   21
OX2
A   22
N2
A   23
C12
A   24
C13
A   25
C16
A   26
C14
A   27
C15
A   28
O1
A   29
C11
A   30
C10
M  END
>  <InstanceId>
6BL8_PVB_A_601

>  <ChemCompId>
PVB

>  <PdbId>
6BL8

>  <ChainId>
A

>  <ResidueNumber>
601

>  <InsertionCode>


>  <Model>
1

>  <AltIds>


>  <MissingHeavyAtoms>
0

>  <ObservedFormula>
C20 N6 O3 Cl

>  <Name>
PURVALANOL B

>  <SystematicName>
2-chloro-4-[[2-[[(2R)-1-hydroxy-3-methyl-butan-2-yl]amino]-9-propan-2-yl-purin-6-yl]amino]benzoic acid

>  <Synonyms>
2-CHLORO-4-{[2-{[(1R)-1-(HYDROXYMETHYL)-2-METHYLPROPYL]AMINO}-9-(1-METHYLETHYL)-9H-PURIN-6-YL]AMINO}BENZOIC ACID

>  <Type>
NON-POLYMER

>  <Formula>
C20 H25 Cl N6 O3

>  <MolecularWeight>
432.904

>  <ModifiedDate>
2011-06-04

>  <Parent>


>  <OneLetterCode>


>  <SubcomponentList>


>  <AmbiguousFlag>
N

>  <InChI>
InChI=1S/C20H25ClN6O3/c1-10(2)15(8-28)24-20-25-17(16-18(26-20)27(9-22-16)11(3)4)23-12-5-6-13(19(29)30)14(21)7-12/h5-7,9-11,15,28H,8H2,1-4H3,(H,29,30)(H2,23,24,25,26)/t15-/m0/s1

>  <InChIKey>
ZKDXRFMOHZVXSG-HNNXBMFYSA-N

>  <SMILES>
CC(C)[C@H](CO)Nc1nc(c2c(n1)n(cn2)C(C)C)Nc3ccc(c(c3)Cl)C(=O)O

$$$$
6BL8_PVB_B_601
  RCSB PDB03171809573D
Coordinates from PDB:6BL8:B:601 Model:1 without hydrogens
 30 32  0  0  0  0            999 V2000
   23.2270   80.2530   38.4350   N 0  0  0  0  0  0  0  0  0  0  0  0
   22.2000   79.7920   43.4520   C 0  0  0  0  0  0  0  0  0  0  0  0
   21.9360   80.5050   42.2110   N 0  0  0  0  0  0  0  0  0  0  0  0
   22.3890   80.2260   40.9920   C 0  0  0  0  0  0  0  0  0  0  0  0
   23.1940   79.2830   40.6490   N 0  0  0  0  0  0  0  0  0  0  0  0
   23.6650   79.3350   39.3410   C 0  0  0  0  0  0  0  0  0  0  0  0
   22.3140   81.1450   38.8080   C 0  0  0  0  0  0  0  0  0  0  0  0
   21.9250   81.1850   40.1700   C 0  0  0  0  0  0  0  0  0  0  0  0
   21.2030   82.0710   40.7990   N 0  0  0  0  0  0  0  0  0  0  0  0
   21.2140   81.6560   42.0320   C 0  0  0  0  0  0  0  0  0  0  0  0
   21.5520   81.8640   37.8240   N 0  0  0  0  0  0  0  0  0  0  0  0
   21.7580   82.0160   36.3970   C 0  0  0  0  0  0  0  0  0  0  0  0
   21.4270   83.2440   35.7770   C 0  0  0  0  0  0  0  0  0  0  0  0
   21.4400   83.3860   34.4020   C 0  0  0  0  0  0  0  0  0  0  0  0
   21.8380   82.3330   33.6300   C 0  0  0  0  0  0  0  0  0  0  0  0
   22.2310   81.2100   34.2250   C 0  0  0  0  0  0  0  0  0  0  0  0
   22.9550   80.1410   33.2370  Cl 0  0  0  0  0  0  0  0  0  0  0  0
   22.1670   80.9660   35.5460   C 0  0  0  0  0  0  0  0  0  0  0  0
   21.7350   82.3540   32.1410   C 0  0  0  0  0  0  0  0  0  0  0  0
   21.6060   81.2480   31.4020   O 0  0  0  0  0  0  0  0  0  0  0  0
   21.7360   83.3150   31.4470   O 0  0  0  0  0  0  0  0  0  0  0  0
   24.6820   78.4320   38.9410   N 0  0  0  0  0  0  0  0  0  0  0  0
   25.3650   78.3170   37.6610   C 0  0  0  0  0  0  0  0  0  0  0  0
   24.8690   77.0010   37.0070   C 0  0  0  0  0  0  0  0  0  0  0  0
   25.5910   76.7420   35.7140   C 0  0  0  0  0  0  0  0  0  0  0  0
   25.1420   75.9010   37.9770   C 0  0  0  0  0  0  0  0  0  0  0  0
   26.9290   78.4890   37.8040   C 0  0  0  0  0  0  0  0  0  0  0  0
   27.3680   78.5320   39.1570   O 0  0  0  0  0  0  0  0  0  0  0  0
   23.6580   79.8790   43.7630   C 0  0  0  0  0  0  0  0  0  0  0  0
   21.8040   78.3500   43.3380   C 0  0  0  0  0  0  0  0  0  0  0  0
  1  6  1  0  0  0  0
  1  7  2  0  0  0  0
  2  3  1  0  0  0  0
  2 29  1  0  0  0  0
  2 30  1  0  0  0  0
  3  4  1  0  0  0  0
  3 10  1  0  0  0  0
  4  5  1  0  0  0  0
  4  8  2  0  0  0  0
  5  6  2  0  0  0  0
  6 22  1  0  0  0  0
  7  8  1  0  0  0  0
  7 11  1  0  0  0  0
  8  9  1  0  0  0  0
  9 10  2  0  0  0  0
 11 12  1  0  0  0  0
 12 13  2  0  0  0  0
 12 18  1  0  0  0  0
 13 14  1  0  0  0  0
 14 15  2  0  0  0  0
 15 16  1  0  0  0  0
 15 19  1  0  0  0  0
 16 17  1  0  0  0  0
 16 18  2  0  0  0  0
 19 20  1  0  0  0  0
 19 21  2  0  0  0  0
 22 23  1  0  0  0  0
 23 24  1  0  0  0  0
 23 27  1  0  0  0  0
 24 25  1  0  0  0  0
 24 26  1  0  0  0  0
 27 28  1  0  0  0  0
A    1
N1
A    2
C9
A    3
N9
A    4
C4
A    5
N3
A    6
C2
A    7
C6
A    8
C5
A    9
N7
A   10
C8
A   11
N6
A   12
C1A
A   13
C2A
A   14
C3A
A   15
C4A
A   16
C5A
A   17
CL1
A   18
C6A
A   19
CX
A   20
OX1
A   21
OX2
A   22
N2
A   23
C12
A   24
C13
A   25
C16
A   26
C14
A   27
C15
A   28
O1
A   29
C11
A   30
C10
M  END
>  <InstanceId>
6BL8_PVB_B_601

>  <ChemCompId>
PVB

>  <PdbId>
6BL8

>  <ChainId>
B

>  <ResidueNumber>
601

>  <InsertionCode>


>  <Model>
1

>  <AltIds>


>  <MissingHeavyAtoms>
0

>  <ObservedFormula>
C20 N6 O3 Cl

>  <Name>
PURVALANOL B

>  <SystematicName>
2-chloro-4-[[2-[[(2R)-1-hydroxy-3-methyl-butan-2-yl]amino]-9-propan-2-yl-purin-6-yl]amino]benzoic acid

>  <Synonyms>
2-CHLORO-4-{[2-{[(1R)-1-(HYDROXYMETHYL)-2-METHYLPROPYL]AMINO}-9-(1-METHYLETHYL)-9H-PURIN-6-YL]AMINO}BENZOIC ACID

>  <Type>
NON-POLYMER

>  <Formula>
C20 H25 Cl N6 O3

>  <MolecularWeight>
432.904

>  <ModifiedDate>
2011-06-04

>  <Parent>


>  <OneLetterCode>


>  <SubcomponentList>


>  <AmbiguousFlag>
N

>  <InChI>
InChI=1S/C20H25ClN6O3/c1-10(2)15(8-28)24-20-25-17(16-18(26-20)27(9-22-16)11(3)4)23-12-5-6-13(19(29)30)14(21)7-12/h5-7,9-11,15,28H,8H2,1-4H3,(H,29,30)(H2,23,24,25,26)/t15-/m0/s1

>  <InChIKey>
ZKDXRFMOHZVXSG-HNNXBMFYSA-N

>  <SMILES>
CC(C)[C@H](CO)Nc1nc(c2c(n1)n(cn2)C(C)C)Nc3ccc(c(c3)Cl)C(=O)O

$$$$
