2HYY_STI_A_600
  RCSB PDB12061705513D
Coordinates from PDB:2HYY:A:600 Model:1 without hydrogens
 37 41  0  0  0  0            999 V2000
   22.8270   11.7250   13.7800   C 0  0  0  0  0  0  0  0  0  0  0  0
   22.0360   12.1770   14.8390   C 0  0  0  0  0  0  0  0  0  0  0  0
   20.6680   11.8090   14.9590   C 0  0  0  0  0  0  0  0  0  0  0  0
   20.1400   11.0010   13.9470   C 0  0  0  0  0  0  0  0  0  0  0  0
   20.8920   10.5700   12.9040   N 0  0  0  0  0  0  0  0  0  0  0  0
   22.1760   10.9310   12.8420   C 0  0  0  0  0  0  0  0  0  0  0  0
   19.7780   12.2610   16.1190   C 0  0  0  0  0  0  0  0  0  0  0  0
   20.2660   12.8280   17.2280   C 0  0  0  0  0  0  0  0  0  0  0  0
   19.3470   13.1770   18.2350   C 0  0  0  0  0  0  0  0  0  0  0  0
   18.0470   12.9440   18.0700   N 0  0  0  0  0  0  0  0  0  0  0  0
   17.5930   12.3830   16.9620   C 0  0  0  0  0  0  0  0  0  0  0  0
   18.4330   12.0210   15.9770   N 0  0  0  0  0  0  0  0  0  0  0  0
   16.2540   12.1250   16.6950   N 0  0  0  0  0  0  0  0  0  0  0  0
   15.3460   12.2710   17.7100   C 0  0  0  0  0  0  0  0  0  0  0  0
   15.2340   11.3050   18.7320   C 0  0  0  0  0  0  0  0  0  0  0  0
   14.2850   11.5390   19.7140   C 0  0  0  0  0  0  0  0  0  0  0  0
   13.4510   12.6990   19.6990   C 0  0  0  0  0  0  0  0  0  0  0  0
   13.5600   13.6330   18.6980   C 0  0  0  0  0  0  0  0  0  0  0  0
   14.5060   13.4010   17.6880   C 0  0  0  0  0  0  0  0  0  0  0  0
   12.6590   14.7350   18.8140   N 0  0  0  0  0  0  0  0  0  0  0  0
   12.5890   15.6820   17.8510   C 0  0  0  0  0  0  0  0  0  0  0  0
   11.4550   16.6420   17.9000   C 0  0  0  0  0  0  0  0  0  0  0  0
   11.0790   17.3300   16.7130   C 0  0  0  0  0  0  0  0  0  0  0  0
   10.0060   18.2850   16.6780   C 0  0  0  0  0  0  0  0  0  0  0  0
    9.2980   18.5360   17.8690   C 0  0  0  0  0  0  0  0  0  0  0  0
    9.6620   17.8540   19.0650   C 0  0  0  0  0  0  0  0  0  0  0  0
   10.7360   16.9080   19.1120   C 0  0  0  0  0  0  0  0  0  0  0  0
    8.1960   19.5290   17.8320   C 0  0  0  0  0  0  0  0  0  0  0  0
    8.1910   20.4060   18.9880   N 0  0  0  0  0  0  0  0  0  0  0  0
    9.4550   21.1520   19.1060   C 0  0  0  0  0  0  0  0  0  0  0  0
    9.4480   22.0490   20.4020   C 0  0  0  0  0  0  0  0  0  0  0  0
    8.1500   22.8120   20.4470   N 0  0  0  0  0  0  0  0  0  0  0  0
    8.1830   23.6190   21.6400   C 0  0  0  0  0  0  0  0  0  0  0  0
    6.9280   22.0290   20.3800   C 0  0  0  0  0  0  0  0  0  0  0  0
    6.9520   21.2300   19.0530   C 0  0  0  0  0  0  0  0  0  0  0  0
   13.3990   15.8030   16.9310   O 0  0  0  0  0  0  0  0  0  0  0  0
   16.0750   10.0530   18.8150   C 0  0  0  0  0  0  0  0  0  0  0  0
  1  2  2  0  0  0  0
  1  6  1  0  0  0  0
  2  3  1  0  0  0  0
  3  4  2  0  0  0  0
  3  7  1  0  0  0  0
  4  5  1  0  0  0  0
  5  6  2  0  0  0  0
  7  8  2  0  0  0  0
  7 12  1  0  0  0  0
  8  9  1  0  0  0  0
  9 10  2  0  0  0  0
 10 11  1  0  0  0  0
 11 12  2  0  0  0  0
 11 13  1  0  0  0  0
 13 14  1  0  0  0  0
 14 15  2  0  0  0  0
 14 19  1  0  0  0  0
 15 16  1  0  0  0  0
 15 37  1  0  0  0  0
 16 17  2  0  0  0  0
 17 18  1  0  0  0  0
 18 19  2  0  0  0  0
 18 20  1  0  0  0  0
 20 21  1  0  0  0  0
 21 22  1  0  0  0  0
 21 36  2  0  0  0  0
 22 23  2  0  0  0  0
 22 27  1  0  0  0  0
 23 24  1  0  0  0  0
 24 25  2  0  0  0  0
 25 26  1  0  0  0  0
 25 28  1  0  0  0  0
 26 27  2  0  0  0  0
 28 29  1  0  0  0  0
 29 30  1  0  0  0  0
 29 35  1  0  0  0  0
 30 31  1  0  0  0  0
 31 32  1  0  0  0  0
 32 33  1  0  0  0  0
 32 34  1  0  0  0  0
 34 35  1  0  0  0  0
A    1
C1
A    2
C6
A    3
C5
A    4
C4
A    5
N3
A    6
C2
A    7
C7
A    8
C12
A    9
C11
A   10
N10
A   11
C9
A   12
N8
A   13
N13
A   14
C14
A   15
C19
A   16
C18
A   17
C17
A   18
C16
A   19
C15
A   20
N21
A   21
C22
A   22
C23
A   23
C25
A   24
C26
A   25
C27
A   26
C28
A   27
C29
A   28
C46
A   29
N48
A   30
C53
A   31
C52
A   32
N51
A   33
C54
A   34
C50
A   35
C49
A   36
O29
A   37
C20
M  END
>  <InstanceId>
2HYY_STI_A_600

>  <ChemCompId>
STI

>  <PdbId>
2HYY

>  <ChainId>
A

>  <ResidueNumber>
600

>  <InsertionCode>


>  <Model>
1

>  <AltIds>


>  <MissingHeavyAtoms>
0

>  <ObservedFormula>
C29 N7 O

>  <Name>
4-(4-METHYL-PIPERAZIN-1-YLMETHYL)-N-[4-METHYL-3-(4-PYRIDIN-3-YL-PYRIMIDIN-2-YLAMINO)-PHENYL]-BENZAMIDE

>  <SystematicName>
4-[(4-methylpiperazin-1-yl)methyl]-N-[4-methyl-3-[(4-pyridin-3-ylpyrimidin-2-yl)amino]phenyl]benzamide

>  <Synonyms>
STI-571;IMATINIB

>  <Type>
NON-POLYMER

>  <Formula>
C29 H31 N7 O

>  <MolecularWeight>
493.603

>  <ModifiedDate>
2011-06-04

>  <Parent>


>  <OneLetterCode>


>  <SubcomponentList>


>  <AmbiguousFlag>
N

>  <InChI>
InChI=1S/C29H31N7O/c1-21-5-10-25(18-27(21)34-29-31-13-11-26(33-29)24-4-3-12-30-19-24)32-28(37)23-8-6-22(7-9-23)20-36-16-14-35(2)15-17-36/h3-13,18-19H,14-17,20H2,1-2H3,(H,32,37)(H,31,33,34)

>  <InChIKey>
KTUFNOKKBVMGRW-UHFFFAOYSA-N

>  <SMILES>
Cc1ccc(cc1Nc2nccc(n2)c3cccnc3)NC(=O)c4ccc(cc4)CN5CCN(CC5)C

$$$$
2HYY_STI_B_600
  RCSB PDB12061705513D
Coordinates from PDB:2HYY:B:600 Model:1 without hydrogens
 37 41  0  0  0  0            999 V2000
   25.7540   63.5930   46.9850   C 0  0  0  0  0  0  0  0  0  0  0  0
   25.0030   63.2180   45.8300   C 0  0  0  0  0  0  0  0  0  0  0  0
   23.6940   63.7260   45.6670   C 0  0  0  0  0  0  0  0  0  0  0  0
   23.1570   64.5960   46.6450   C 0  0  0  0  0  0  0  0  0  0  0  0
   23.8470   64.9730   47.7760   N 0  0  0  0  0  0  0  0  0  0  0  0
   25.1010   64.4620   47.8940   C 0  0  0  0  0  0  0  0  0  0  0  0
   22.8490   63.3700   44.4490   C 0  0  0  0  0  0  0  0  0  0  0  0
   23.3040   62.6940   43.3790   C 0  0  0  0  0  0  0  0  0  0  0  0
   22.4210   62.4410   42.3330   C 0  0  0  0  0  0  0  0  0  0  0  0
   21.1820   62.8410   42.4050   N 0  0  0  0  0  0  0  0  0  0  0  0
   20.7760   63.5350   43.4870   C 0  0  0  0  0  0  0  0  0  0  0  0
   21.5970   63.8370   44.4970   N 0  0  0  0  0  0  0  0  0  0  0  0
   19.4890   64.0310   43.7060   N 0  0  0  0  0  0  0  0  0  0  0  0
   18.5380   63.8450   42.7120   C 0  0  0  0  0  0  0  0  0  0  0  0
   18.3700   64.8080   41.7120   C 0  0  0  0  0  0  0  0  0  0  0  0
   17.3530   64.6170   40.7810   C 0  0  0  0  0  0  0  0  0  0  0  0
   16.4840   63.5060   40.7630   C 0  0  0  0  0  0  0  0  0  0  0  0
   16.6150   62.5740   41.8020   C 0  0  0  0  0  0  0  0  0  0  0  0
   17.6350   62.7350   42.7720   C 0  0  0  0  0  0  0  0  0  0  0  0
   15.6520   61.5420   41.7390   N 0  0  0  0  0  0  0  0  0  0  0  0
   15.4300   60.7370   42.7700   C 0  0  0  0  0  0  0  0  0  0  0  0
   14.1720   60.0050   42.7730   C 0  0  0  0  0  0  0  0  0  0  0  0
   13.7500   59.3560   43.9740   C 0  0  0  0  0  0  0  0  0  0  0  0
   12.5550   58.5650   43.9500   C 0  0  0  0  0  0  0  0  0  0  0  0
   11.7750   58.4620   42.7750   C 0  0  0  0  0  0  0  0  0  0  0  0
   12.2160   59.0960   41.6070   C 0  0  0  0  0  0  0  0  0  0  0  0
   13.4320   59.8720   41.5880   C 0  0  0  0  0  0  0  0  0  0  0  0
   10.5420   57.6220   42.8210   C 0  0  0  0  0  0  0  0  0  0  0  0
   10.4130   56.7750   41.6520   N 0  0  0  0  0  0  0  0  0  0  0  0
   11.5700   55.9080   41.4660   C 0  0  0  0  0  0  0  0  0  0  0  0
   11.4280   54.9250   40.2100   C 0  0  0  0  0  0  0  0  0  0  0  0
   10.0440   54.3590   40.2790   N 0  0  0  0  0  0  0  0  0  0  0  0
    9.8340   53.5540   39.0770   C 0  0  0  0  0  0  0  0  0  0  0  0
    8.9820   55.3270   40.3300   C 0  0  0  0  0  0  0  0  0  0  0  0
    9.0930   56.0860   41.6540   C 0  0  0  0  0  0  0  0  0  0  0  0
   16.2110   60.4770   43.6620   O 0  0  0  0  0  0  0  0  0  0  0  0
   19.2890   66.0280   41.5800   C 0  0  0  0  0  0  0  0  0  0  0  0
  1  2  2  0  0  0  0
  1  6  1  0  0  0  0
  2  3  1  0  0  0  0
  3  4  2  0  0  0  0
  3  7  1  0  0  0  0
  4  5  1  0  0  0  0
  5  6  2  0  0  0  0
  7  8  2  0  0  0  0
  7 12  1  0  0  0  0
  8  9  1  0  0  0  0
  9 10  2  0  0  0  0
 10 11  1  0  0  0  0
 11 12  2  0  0  0  0
 11 13  1  0  0  0  0
 13 14  1  0  0  0  0
 14 15  2  0  0  0  0
 14 19  1  0  0  0  0
 15 16  1  0  0  0  0
 15 37  1  0  0  0  0
 16 17  2  0  0  0  0
 17 18  1  0  0  0  0
 18 19  2  0  0  0  0
 18 20  1  0  0  0  0
 20 21  1  0  0  0  0
 21 22  1  0  0  0  0
 21 36  2  0  0  0  0
 22 23  2  0  0  0  0
 22 27  1  0  0  0  0
 23 24  1  0  0  0  0
 24 25  2  0  0  0  0
 25 26  1  0  0  0  0
 25 28  1  0  0  0  0
 26 27  2  0  0  0  0
 28 29  1  0  0  0  0
 29 30  1  0  0  0  0
 29 35  1  0  0  0  0
 30 31  1  0  0  0  0
 31 32  1  0  0  0  0
 32 33  1  0  0  0  0
 32 34  1  0  0  0  0
 34 35  1  0  0  0  0
A    1
C1
A    2
C6
A    3
C5
A    4
C4
A    5
N3
A    6
C2
A    7
C7
A    8
C12
A    9
C11
A   10
N10
A   11
C9
A   12
N8
A   13
N13
A   14
C14
A   15
C19
A   16
C18
A   17
C17
A   18
C16
A   19
C15
A   20
N21
A   21
C22
A   22
C23
A   23
C25
A   24
C26
A   25
C27
A   26
C28
A   27
C29
A   28
C46
A   29
N48
A   30
C53
A   31
C52
A   32
N51
A   33
C54
A   34
C50
A   35
C49
A   36
O29
A   37
C20
M  END
>  <InstanceId>
2HYY_STI_B_600

>  <ChemCompId>
STI

>  <PdbId>
2HYY

>  <ChainId>
B

>  <ResidueNumber>
600

>  <InsertionCode>


>  <Model>
1

>  <AltIds>


>  <MissingHeavyAtoms>
0

>  <ObservedFormula>
C29 N7 O

>  <Name>
4-(4-METHYL-PIPERAZIN-1-YLMETHYL)-N-[4-METHYL-3-(4-PYRIDIN-3-YL-PYRIMIDIN-2-YLAMINO)-PHENYL]-BENZAMIDE

>  <SystematicName>
4-[(4-methylpiperazin-1-yl)methyl]-N-[4-methyl-3-[(4-pyridin-3-ylpyrimidin-2-yl)amino]phenyl]benzamide

>  <Synonyms>
STI-571;IMATINIB

>  <Type>
NON-POLYMER

>  <Formula>
C29 H31 N7 O

>  <MolecularWeight>
493.603

>  <ModifiedDate>
2011-06-04

>  <Parent>


>  <OneLetterCode>


>  <SubcomponentList>


>  <AmbiguousFlag>
N

>  <InChI>
InChI=1S/C29H31N7O/c1-21-5-10-25(18-27(21)34-29-31-13-11-26(33-29)24-4-3-12-30-19-24)32-28(37)23-8-6-22(7-9-23)20-36-16-14-35(2)15-17-36/h3-13,18-19H,14-17,20H2,1-2H3,(H,32,37)(H,31,33,34)

>  <InChIKey>
KTUFNOKKBVMGRW-UHFFFAOYSA-N

>  <SMILES>
Cc1ccc(cc1Nc2nccc(n2)c3cccnc3)NC(=O)c4ccc(cc4)CN5CCN(CC5)C

$$$$
2HYY_STI_C_600
  RCSB PDB12061705513D
Coordinates from PDB:2HYY:C:600 Model:1 without hydrogens
 37 41  0  0  0  0            999 V2000
   63.5480   48.1030   18.6180   C 0  0  0  0  0  0  0  0  0  0  0  0
   63.0290   48.8330   17.5400   C 0  0  0  0  0  0  0  0  0  0  0  0
   63.3200   50.2310   17.4320   C 0  0  0  0  0  0  0  0  0  0  0  0
   64.1560   50.8350   18.3690   C 0  0  0  0  0  0  0  0  0  0  0  0
   64.6750   50.0840   19.4270   N 0  0  0  0  0  0  0  0  0  0  0  0
   64.3670   48.7670   19.5100   C 0  0  0  0  0  0  0  0  0  0  0  0
   62.8240   51.1030   16.2970   C 0  0  0  0  0  0  0  0  0  0  0  0
   62.2280   50.5780   15.2210   C 0  0  0  0  0  0  0  0  0  0  0  0
   61.8700   51.4970   14.1990   C 0  0  0  0  0  0  0  0  0  0  0  0
   62.1290   52.8060   14.3580   N 0  0  0  0  0  0  0  0  0  0  0  0
   62.7400   53.2580   15.4700   C 0  0  0  0  0  0  0  0  0  0  0  0
   63.1420   52.4270   16.4430   N 0  0  0  0  0  0  0  0  0  0  0  0
   63.0140   54.5840   15.7220   N 0  0  0  0  0  0  0  0  0  0  0  0
   62.8730   55.4970   14.6950   C 0  0  0  0  0  0  0  0  0  0  0  0
   63.8370   55.7240   13.6800   C 0  0  0  0  0  0  0  0  0  0  0  0
   63.5250   56.7300   12.7570   C 0  0  0  0  0  0  0  0  0  0  0  0
   62.3210   57.4780   12.8000   C 0  0  0  0  0  0  0  0  0  0  0  0
   61.3740   57.2630   13.7760   C 0  0  0  0  0  0  0  0  0  0  0  0
   61.6840   56.2770   14.7130   C 0  0  0  0  0  0  0  0  0  0  0  0
   60.1800   58.0950   13.7210   N 0  0  0  0  0  0  0  0  0  0  0  0
   59.3060   58.3230   14.7280   C 0  0  0  0  0  0  0  0  0  0  0  0
   58.3860   59.4950   14.7360   C 0  0  0  0  0  0  0  0  0  0  0  0
   57.5700   59.7550   15.8520   C 0  0  0  0  0  0  0  0  0  0  0  0
   56.6310   60.8190   15.8980   C 0  0  0  0  0  0  0  0  0  0  0  0
   56.5060   61.6630   14.7990   C 0  0  0  0  0  0  0  0  0  0  0  0
   57.2670   61.3960   13.6720   C 0  0  0  0  0  0  0  0  0  0  0  0
   58.1950   60.3220   13.6180   C 0  0  0  0  0  0  0  0  0  0  0  0
   55.5170   62.7980   14.8260   C 0  0  0  0  0  0  0  0  0  0  0  0
   54.6660   62.8220   13.6500   N 0  0  0  0  0  0  0  0  0  0  0  0
   53.9280   61.5600   13.5270   C 0  0  0  0  0  0  0  0  0  0  0  0
   53.0530   61.5960   12.2140   C 0  0  0  0  0  0  0  0  0  0  0  0
   52.2570   62.8380   12.2300   N 0  0  0  0  0  0  0  0  0  0  0  0
   51.6290   62.8120   10.9250   C 0  0  0  0  0  0  0  0  0  0  0  0
   53.0920   63.9910   12.3580   C 0  0  0  0  0  0  0  0  0  0  0  0
   53.7320   63.9520   13.7600   C 0  0  0  0  0  0  0  0  0  0  0  0
   59.2040   57.5660   15.6480   O 0  0  0  0  0  0  0  0  0  0  0  0
   65.1760   54.9810   13.5260   C 0  0  0  0  0  0  0  0  0  0  0  0
  1  2  2  0  0  0  0
  1  6  1  0  0  0  0
  2  3  1  0  0  0  0
  3  4  2  0  0  0  0
  3  7  1  0  0  0  0
  4  5  1  0  0  0  0
  5  6  2  0  0  0  0
  7  8  2  0  0  0  0
  7 12  1  0  0  0  0
  8  9  1  0  0  0  0
  9 10  2  0  0  0  0
 10 11  1  0  0  0  0
 11 12  2  0  0  0  0
 11 13  1  0  0  0  0
 13 14  1  0  0  0  0
 14 15  2  0  0  0  0
 14 19  1  0  0  0  0
 15 16  1  0  0  0  0
 15 37  1  0  0  0  0
 16 17  2  0  0  0  0
 17 18  1  0  0  0  0
 18 19  2  0  0  0  0
 18 20  1  0  0  0  0
 20 21  1  0  0  0  0
 21 22  1  0  0  0  0
 21 36  2  0  0  0  0
 22 23  2  0  0  0  0
 22 27  1  0  0  0  0
 23 24  1  0  0  0  0
 24 25  2  0  0  0  0
 25 26  1  0  0  0  0
 25 28  1  0  0  0  0
 26 27  2  0  0  0  0
 28 29  1  0  0  0  0
 29 30  1  0  0  0  0
 29 35  1  0  0  0  0
 30 31  1  0  0  0  0
 31 32  1  0  0  0  0
 32 33  1  0  0  0  0
 32 34  1  0  0  0  0
 34 35  1  0  0  0  0
A    1
C1
A    2
C6
A    3
C5
A    4
C4
A    5
N3
A    6
C2
A    7
C7
A    8
C12
A    9
C11
A   10
N10
A   11
C9
A   12
N8
A   13
N13
A   14
C14
A   15
C19
A   16
C18
A   17
C17
A   18
C16
A   19
C15
A   20
N21
A   21
C22
A   22
C23
A   23
C25
A   24
C26
A   25
C27
A   26
C28
A   27
C29
A   28
C46
A   29
N48
A   30
C53
A   31
C52
A   32
N51
A   33
C54
A   34
C50
A   35
C49
A   36
O29
A   37
C20
M  END
>  <InstanceId>
2HYY_STI_C_600

>  <ChemCompId>
STI

>  <PdbId>
2HYY

>  <ChainId>
C

>  <ResidueNumber>
600

>  <InsertionCode>


>  <Model>
1

>  <AltIds>


>  <MissingHeavyAtoms>
0

>  <ObservedFormula>
C29 N7 O

>  <Name>
4-(4-METHYL-PIPERAZIN-1-YLMETHYL)-N-[4-METHYL-3-(4-PYRIDIN-3-YL-PYRIMIDIN-2-YLAMINO)-PHENYL]-BENZAMIDE

>  <SystematicName>
4-[(4-methylpiperazin-1-yl)methyl]-N-[4-methyl-3-[(4-pyridin-3-ylpyrimidin-2-yl)amino]phenyl]benzamide

>  <Synonyms>
STI-571;IMATINIB

>  <Type>
NON-POLYMER

>  <Formula>
C29 H31 N7 O

>  <MolecularWeight>
493.603

>  <ModifiedDate>
2011-06-04

>  <Parent>


>  <OneLetterCode>


>  <SubcomponentList>


>  <AmbiguousFlag>
N

>  <InChI>
InChI=1S/C29H31N7O/c1-21-5-10-25(18-27(21)34-29-31-13-11-26(33-29)24-4-3-12-30-19-24)32-28(37)23-8-6-22(7-9-23)20-36-16-14-35(2)15-17-36/h3-13,18-19H,14-17,20H2,1-2H3,(H,32,37)(H,31,33,34)

>  <InChIKey>
KTUFNOKKBVMGRW-UHFFFAOYSA-N

>  <SMILES>
Cc1ccc(cc1Nc2nccc(n2)c3cccnc3)NC(=O)c4ccc(cc4)CN5CCN(CC5)C

$$$$
2HYY_STI_D_600
  RCSB PDB12061705513D
Coordinates from PDB:2HYY:D:600 Model:1 without hydrogens
 37 41  0  0  0  0            999 V2000
   62.3160   23.0770   42.3350   C 0  0  0  0  0  0  0  0  0  0  0  0
   61.7440   22.4080   43.4540   C 0  0  0  0  0  0  0  0  0  0  0  0
   61.7840   21.0080   43.5850   C 0  0  0  0  0  0  0  0  0  0  0  0
   62.4370   20.2940   42.5920   C 0  0  0  0  0  0  0  0  0  0  0  0
   62.9960   20.8910   41.4870   N 0  0  0  0  0  0  0  0  0  0  0  0
   62.9100   22.2540   41.3890   C 0  0  0  0  0  0  0  0  0  0  0  0
   61.1990   20.2660   44.7790   C 0  0  0  0  0  0  0  0  0  0  0  0
   60.6640   20.9070   45.8230   C 0  0  0  0  0  0  0  0  0  0  0  0
   60.2400   20.0770   46.8730   C 0  0  0  0  0  0  0  0  0  0  0  0
   60.3430   18.7380   46.7950   N 0  0  0  0  0  0  0  0  0  0  0  0
   60.9040   18.1770   45.7640   C 0  0  0  0  0  0  0  0  0  0  0  0
   61.3320   18.9100   44.7400   N 0  0  0  0  0  0  0  0  0  0  0  0
   61.0630   16.8080   45.5810   N 0  0  0  0  0  0  0  0  0  0  0  0
   60.8390   15.8570   46.5890   C 0  0  0  0  0  0  0  0  0  0  0  0
   61.8030   15.5150   47.5610   C 0  0  0  0  0  0  0  0  0  0  0  0
   61.4850   14.5420   48.4750   C 0  0  0  0  0  0  0  0  0  0  0  0
   60.2630   13.8590   48.4840   C 0  0  0  0  0  0  0  0  0  0  0  0
   59.3370   14.1380   47.4770   C 0  0  0  0  0  0  0  0  0  0  0  0
   59.6430   15.1370   46.5540   C 0  0  0  0  0  0  0  0  0  0  0  0
   58.1060   13.3940   47.5150   N 0  0  0  0  0  0  0  0  0  0  0  0
   57.2180   13.4310   46.5110   C 0  0  0  0  0  0  0  0  0  0  0  0
   56.1740   12.4180   46.5170   C 0  0  0  0  0  0  0  0  0  0  0  0
   55.4260   12.2230   45.3490   C 0  0  0  0  0  0  0  0  0  0  0  0
   54.3920   11.2570   45.3680   C 0  0  0  0  0  0  0  0  0  0  0  0
   54.1040   10.5400   46.5240   C 0  0  0  0  0  0  0  0  0  0  0  0
   54.8160   10.7580   47.6950   C 0  0  0  0  0  0  0  0  0  0  0  0
   55.8550   11.7280   47.7210   C 0  0  0  0  0  0  0  0  0  0  0  0
   52.9730    9.5730   46.4640   C 0  0  0  0  0  0  0  0  0  0  0  0
   52.0760    9.5570   47.6140   N 0  0  0  0  0  0  0  0  0  0  0  0
   51.4340   10.8810   47.8620   C 0  0  0  0  0  0  0  0  0  0  0  0
   50.3770   10.8150   49.0660   C 0  0  0  0  0  0  0  0  0  0  0  0
   49.4820    9.6420   48.8620   N 0  0  0  0  0  0  0  0  0  0  0  0
   48.5730    9.5270   50.0010   C 0  0  0  0  0  0  0  0  0  0  0  0
   50.2190    8.4270   48.6860   C 0  0  0  0  0  0  0  0  0  0  0  0
   51.0690    8.5000   47.3820   C 0  0  0  0  0  0  0  0  0  0  0  0
   57.1480   14.2650   45.6160   O 0  0  0  0  0  0  0  0  0  0  0  0
   63.1340   16.2200   47.6690   C 0  0  0  0  0  0  0  0  0  0  0  0
  1  2  2  0  0  0  0
  1  6  1  0  0  0  0
  2  3  1  0  0  0  0
  3  4  2  0  0  0  0
  3  7  1  0  0  0  0
  4  5  1  0  0  0  0
  5  6  2  0  0  0  0
  7  8  2  0  0  0  0
  7 12  1  0  0  0  0
  8  9  1  0  0  0  0
  9 10  2  0  0  0  0
 10 11  1  0  0  0  0
 11 12  2  0  0  0  0
 11 13  1  0  0  0  0
 13 14  1  0  0  0  0
 14 15  2  0  0  0  0
 14 19  1  0  0  0  0
 15 16  1  0  0  0  0
 15 37  1  0  0  0  0
 16 17  2  0  0  0  0
 17 18  1  0  0  0  0
 18 19  2  0  0  0  0
 18 20  1  0  0  0  0
 20 21  1  0  0  0  0
 21 22  1  0  0  0  0
 21 36  2  0  0  0  0
 22 23  2  0  0  0  0
 22 27  1  0  0  0  0
 23 24  1  0  0  0  0
 24 25  2  0  0  0  0
 25 26  1  0  0  0  0
 25 28  1  0  0  0  0
 26 27  2  0  0  0  0
 28 29  1  0  0  0  0
 29 30  1  0  0  0  0
 29 35  1  0  0  0  0
 30 31  1  0  0  0  0
 31 32  1  0  0  0  0
 32 33  1  0  0  0  0
 32 34  1  0  0  0  0
 34 35  1  0  0  0  0
A    1
C1
A    2
C6
A    3
C5
A    4
C4
A    5
N3
A    6
C2
A    7
C7
A    8
C12
A    9
C11
A   10
N10
A   11
C9
A   12
N8
A   13
N13
A   14
C14
A   15
C19
A   16
C18
A   17
C17
A   18
C16
A   19
C15
A   20
N21
A   21
C22
A   22
C23
A   23
C25
A   24
C26
A   25
C27
A   26
C28
A   27
C29
A   28
C46
A   29
N48
A   30
C53
A   31
C52
A   32
N51
A   33
C54
A   34
C50
A   35
C49
A   36
O29
A   37
C20
M  END
>  <InstanceId>
2HYY_STI_D_600

>  <ChemCompId>
STI

>  <PdbId>
2HYY

>  <ChainId>
D

>  <ResidueNumber>
600

>  <InsertionCode>


>  <Model>
1

>  <AltIds>


>  <MissingHeavyAtoms>
0

>  <ObservedFormula>
C29 N7 O

>  <Name>
4-(4-METHYL-PIPERAZIN-1-YLMETHYL)-N-[4-METHYL-3-(4-PYRIDIN-3-YL-PYRIMIDIN-2-YLAMINO)-PHENYL]-BENZAMIDE

>  <SystematicName>
4-[(4-methylpiperazin-1-yl)methyl]-N-[4-methyl-3-[(4-pyridin-3-ylpyrimidin-2-yl)amino]phenyl]benzamide

>  <Synonyms>
STI-571;IMATINIB

>  <Type>
NON-POLYMER

>  <Formula>
C29 H31 N7 O

>  <MolecularWeight>
493.603

>  <ModifiedDate>
2011-06-04

>  <Parent>


>  <OneLetterCode>


>  <SubcomponentList>


>  <AmbiguousFlag>
N

>  <InChI>
InChI=1S/C29H31N7O/c1-21-5-10-25(18-27(21)34-29-31-13-11-26(33-29)24-4-3-12-30-19-24)32-28(37)23-8-6-22(7-9-23)20-36-16-14-35(2)15-17-36/h3-13,18-19H,14-17,20H2,1-2H3,(H,32,37)(H,31,33,34)

>  <InChIKey>
KTUFNOKKBVMGRW-UHFFFAOYSA-N

>  <SMILES>
Cc1ccc(cc1Nc2nccc(n2)c3cccnc3)NC(=O)c4ccc(cc4)CN5CCN(CC5)C

$$$$
