4ZOG_VX6_A_601
  RCSB PDB12061716403D
Coordinates from PDB:4ZOG:A:601 Model:1 without hydrogens
 33 37  0  0  0  0            999 V2000
   -6.7380   10.3730   -1.8110   N 0  0  0  0  0  0  0  0  0  0  0  0
   -7.7690    9.9000   -0.8710   C 0  0  0  0  0  0  0  0  0  0  0  0
   -9.1460   10.3390   -1.3600   C 0  0  0  0  0  0  0  0  0  0  0  0
   -9.1740   11.8020   -1.5560   N 0  0  0  0  0  0  0  0  0  0  0  0
   -8.0600   12.3100   -2.3840   C 0  0  0  0  0  0  0  0  0  0  0  0
   -6.7330   11.8410   -1.8090   C 0  0  0  0  0  0  0  0  0  0  0  0
   -5.4090    9.8510   -1.4420   C 0  0  0  0  0  0  0  0  0  0  0  0
  -10.4120   12.2980   -2.0440   C 0  0  0  0  0  0  0  0  0  0  0  0
  -11.6340   11.7260   -1.6800   C 0  0  0  0  0  0  0  0  0  0  0  0
  -12.8100   12.3070   -2.1560   C 0  0  0  0  0  0  0  0  0  0  0  0
  -12.7600   13.3960   -2.9530   N 0  0  0  0  0  0  0  0  0  0  0  0
  -11.5700   13.9390   -3.3040   C 0  0  0  0  0  0  0  0  0  0  0  0
  -10.4150   13.3960   -2.8410   N 0  0  0  0  0  0  0  0  0  0  0  0
  -13.9950   11.7650   -1.8240   N 0  0  0  0  0  0  0  0  0  0  0  0
  -15.2020   12.3120   -2.1040   C 0  0  0  0  0  0  0  0  0  0  0  0
  -15.6900   13.4010   -2.8320   C 0  0  0  0  0  0  0  0  0  0  0  0
  -17.0660   13.3090   -2.6540   C 0  0  0  0  0  0  0  0  0  0  0  0
  -17.3910   12.2510   -1.8890   N 0  0  0  0  0  0  0  0  0  0  0  0
  -16.1920   11.6190   -1.5370   N 0  0  0  0  0  0  0  0  0  0  0  0
  -17.9280   14.3600   -3.3130   C 0  0  0  0  0  0  0  0  0  0  0  0
  -11.4920   15.3340   -4.2840   S 0  0  0  0  0  0  0  0  0  0  0  0
  -13.0970   15.9040   -4.4820   C 0  0  0  0  0  0  0  0  0  0  0  0
  -13.6610   15.9390   -5.7650   C 0  0  0  0  0  0  0  0  0  0  0  0
  -14.9630   16.4130   -5.9610   C 0  0  0  0  0  0  0  0  0  0  0  0
  -15.7340   16.8500   -4.8850   C 0  0  0  0  0  0  0  0  0  0  0  0
  -15.1720   16.8060   -3.5970   C 0  0  0  0  0  0  0  0  0  0  0  0
  -13.8660   16.3470   -3.4010   C 0  0  0  0  0  0  0  0  0  0  0  0
  -16.9990   17.2850   -5.1540   N 0  0  0  0  0  0  0  0  0  0  0  0
  -17.9630   17.6430   -4.2820   C 0  0  0  0  0  0  0  0  0  0  0  0
  -17.8500   17.6490   -3.0630   O 0  0  0  0  0  0  0  0  0  0  0  0
  -19.2830   18.0370   -4.9050   C 0  0  0  0  0  0  0  0  0  0  0  0
  -20.4680   17.3180   -4.2470   C 0  0  0  0  0  0  0  0  0  0  0  0
  -20.1780   18.7710   -3.9070   C 0  0  0  0  0  0  0  0  0  0  0  0
  1  2  1  0  0  0  0
  1  6  1  0  0  0  0
  1  7  1  0  0  0  0
  2  3  1  0  0  0  0
  3  4  1  0  0  0  0
  4  5  1  0  0  0  0
  4  8  1  0  0  0  0
  5  6  1  0  0  0  0
  8  9  1  0  0  0  0
  8 13  2  0  0  0  0
  9 10  2  0  0  0  0
 10 11  1  0  0  0  0
 10 14  1  0  0  0  0
 11 12  2  0  0  0  0
 12 13  1  0  0  0  0
 12 21  1  0  0  0  0
 14 15  1  0  0  0  0
 15 16  2  0  0  0  0
 15 19  1  0  0  0  0
 16 17  1  0  0  0  0
 17 18  2  0  0  0  0
 17 20  1  0  0  0  0
 18 19  1  0  0  0  0
 21 22  1  0  0  0  0
 22 23  1  0  0  0  0
 22 27  2  0  0  0  0
 23 24  2  0  0  0  0
 24 25  1  0  0  0  0
 25 26  2  0  0  0  0
 25 28  1  0  0  0  0
 26 27  1  0  0  0  0
 28 29  1  0  0  0  0
 29 30  2  0  0  0  0
 29 31  1  0  0  0  0
 31 32  1  0  0  0  0
 31 33  1  0  0  0  0
 32 33  1  0  0  0  0
A    1
N1
A    2
C2
A    3
C3
A    4
N4
A    5
C5
A    6
C6
A    7
C7
A    8
C8
A    9
C9
A   10
C10
A   11
N11
A   12
C12
A   13
N13
A   14
N14
A   15
C15
A   16
C17
A   17
C18
A   18
N19
A   19
N20
A   20
C21
A   21
S23
A   22
C24
A   23
C25
A   24
C26
A   25
C27
A   26
C28
A   27
C29
A   28
N30
A   29
C31
A   30
O32
A   31
C33
A   32
C34
A   33
C35
M  END
>  <InstanceId>
4ZOG_VX6_A_601

>  <ChemCompId>
VX6

>  <PdbId>
4ZOG

>  <ChainId>
A

>  <ResidueNumber>
601

>  <InsertionCode>


>  <Model>
1

>  <AltIds>


>  <MissingHeavyAtoms>
0

>  <ObservedFormula>
C23 N8 O S

>  <Name>
CYCLOPROPANECARBOXYLIC ACID {4-[4-(4-METHYL-PIPERAZIN-1-YL)-6-(5-METHYL-2H-PYRAZOL-3-YLAMINO)-PYRIMIDIN-2-YLSULFANYL]-PHENYL}-AMIDE

>  <SystematicName>
N-[4-[4-(4-methylpiperazin-1-yl)-6-[(5-methyl-2H-pyrazol-3-yl)amino]pyrimidin-2-yl]sulfanylphenyl]cyclopropanecarboxamide

>  <Synonyms>


>  <Type>
NON-POLYMER

>  <Formula>
C23 H28 N8 O S

>  <MolecularWeight>
464.586

>  <ModifiedDate>
2011-06-04

>  <Parent>


>  <OneLetterCode>


>  <SubcomponentList>


>  <AmbiguousFlag>
N

>  <InChI>
InChI=1S/C23H28N8OS/c1-15-13-20(29-28-15)25-19-14-21(31-11-9-30(2)10-12-31)27-23(26-19)33-18-7-5-17(6-8-18)24-22(32)16-3-4-16/h5-8,13-14,16H,3-4,9-12H2,1-2H3,(H,24,32)(H2,25,26,27,28,29)

>  <InChIKey>
GCIKSSRWRFVXBI-UHFFFAOYSA-N

>  <SMILES>
Cc1cc([nH]n1)Nc2cc(nc(n2)Sc3ccc(cc3)NC(=O)C4CC4)N5CCN(CC5)C

$$$$
4ZOG_VX6_B_601
  RCSB PDB12061716403D
Coordinates from PDB:4ZOG:B:601 Model:1 without hydrogens
 33 37  0  0  0  0            999 V2000
  -22.1030   46.9110  -25.3130   N 0  0  0  0  0  0  0  0  0  0  0  0
  -21.0210   46.6600  -24.3380   C 0  0  0  0  0  0  0  0  0  0  0  0
  -21.4190   47.1240  -22.9340   C 0  0  0  0  0  0  0  0  0  0  0  0
  -21.8060   48.5400  -22.9790   N 0  0  0  0  0  0  0  0  0  0  0  0
  -22.9060   48.7480  -23.9290   C 0  0  0  0  0  0  0  0  0  0  0  0
  -22.4380   48.3380  -25.3190   C 0  0  0  0  0  0  0  0  0  0  0  0
  -21.6850   46.5280  -26.6660   C 0  0  0  0  0  0  0  0  0  0  0  0
  -22.1650   49.0410  -21.7150   C 0  0  0  0  0  0  0  0  0  0  0  0
  -21.7150   48.4020  -20.5750   C 0  0  0  0  0  0  0  0  0  0  0  0
  -22.0590   48.9270  -19.3320   C 0  0  0  0  0  0  0  0  0  0  0  0
  -22.8220   50.0370  -19.2540   N 0  0  0  0  0  0  0  0  0  0  0  0
  -23.2650   50.6580  -20.3770   C 0  0  0  0  0  0  0  0  0  0  0  0
  -22.9330   50.1590  -21.6030   N 0  0  0  0  0  0  0  0  0  0  0  0
  -21.6240   48.3110  -18.2170   N 0  0  0  0  0  0  0  0  0  0  0  0
  -21.6200   48.8970  -16.9970   C 0  0  0  0  0  0  0  0  0  0  0  0
  -22.1960   50.0250  -16.4170   C 0  0  0  0  0  0  0  0  0  0  0  0
  -21.7420   49.9710  -15.1100   C 0  0  0  0  0  0  0  0  0  0  0  0
  -20.9610   48.8950  -14.9080   N 0  0  0  0  0  0  0  0  0  0  0  0
  -20.8920   48.2070  -16.1220   N 0  0  0  0  0  0  0  0  0  0  0  0
  -22.1810   51.0770  -14.1840   C 0  0  0  0  0  0  0  0  0  0  0  0
  -24.2340   52.0620  -20.2570   S 0  0  0  0  0  0  0  0  0  0  0  0
  -24.2840   52.5250  -18.6030   C 0  0  0  0  0  0  0  0  0  0  0  0
  -23.1480   52.9590  -17.9180   C 0  0  0  0  0  0  0  0  0  0  0  0
  -23.2200   53.3370  -16.5670   C 0  0  0  0  0  0  0  0  0  0  0  0
  -24.4270   53.3070  -15.8600   C 0  0  0  0  0  0  0  0  0  0  0  0
  -25.5580   52.8760  -16.5540   C 0  0  0  0  0  0  0  0  0  0  0  0
  -25.4900   52.4960  -17.8980   C 0  0  0  0  0  0  0  0  0  0  0  0
  -24.5540   53.6650  -14.5380   N 0  0  0  0  0  0  0  0  0  0  0  0
  -23.5780   54.0200  -13.6680   C 0  0  0  0  0  0  0  0  0  0  0  0
  -22.3780   53.9130  -13.8770   O 0  0  0  0  0  0  0  0  0  0  0  0
  -24.0250   54.6210  -12.3540   C 0  0  0  0  0  0  0  0  0  0  0  0
  -23.8180   53.6500  -11.1930   C 0  0  0  0  0  0  0  0  0  0  0  0
  -22.8400   54.7950  -11.4010   C 0  0  0  0  0  0  0  0  0  0  0  0
  1  2  1  0  0  0  0
  1  6  1  0  0  0  0
  1  7  1  0  0  0  0
  2  3  1  0  0  0  0
  3  4  1  0  0  0  0
  4  5  1  0  0  0  0
  4  8  1  0  0  0  0
  5  6  1  0  0  0  0
  8  9  1  0  0  0  0
  8 13  2  0  0  0  0
  9 10  2  0  0  0  0
 10 11  1  0  0  0  0
 10 14  1  0  0  0  0
 11 12  2  0  0  0  0
 12 13  1  0  0  0  0
 12 21  1  0  0  0  0
 14 15  1  0  0  0  0
 15 16  2  0  0  0  0
 15 19  1  0  0  0  0
 16 17  1  0  0  0  0
 17 18  2  0  0  0  0
 17 20  1  0  0  0  0
 18 19  1  0  0  0  0
 21 22  1  0  0  0  0
 22 23  1  0  0  0  0
 22 27  2  0  0  0  0
 23 24  2  0  0  0  0
 24 25  1  0  0  0  0
 25 26  2  0  0  0  0
 25 28  1  0  0  0  0
 26 27  1  0  0  0  0
 28 29  1  0  0  0  0
 29 30  2  0  0  0  0
 29 31  1  0  0  0  0
 31 32  1  0  0  0  0
 31 33  1  0  0  0  0
 32 33  1  0  0  0  0
A    1
N1
A    2
C2
A    3
C3
A    4
N4
A    5
C5
A    6
C6
A    7
C7
A    8
C8
A    9
C9
A   10
C10
A   11
N11
A   12
C12
A   13
N13
A   14
N14
A   15
C15
A   16
C17
A   17
C18
A   18
N19
A   19
N20
A   20
C21
A   21
S23
A   22
C24
A   23
C25
A   24
C26
A   25
C27
A   26
C28
A   27
C29
A   28
N30
A   29
C31
A   30
O32
A   31
C33
A   32
C34
A   33
C35
M  END
>  <InstanceId>
4ZOG_VX6_B_601

>  <ChemCompId>
VX6

>  <PdbId>
4ZOG

>  <ChainId>
B

>  <ResidueNumber>
601

>  <InsertionCode>


>  <Model>
1

>  <AltIds>


>  <MissingHeavyAtoms>
0

>  <ObservedFormula>
C23 N8 O S

>  <Name>
CYCLOPROPANECARBOXYLIC ACID {4-[4-(4-METHYL-PIPERAZIN-1-YL)-6-(5-METHYL-2H-PYRAZOL-3-YLAMINO)-PYRIMIDIN-2-YLSULFANYL]-PHENYL}-AMIDE

>  <SystematicName>
N-[4-[4-(4-methylpiperazin-1-yl)-6-[(5-methyl-2H-pyrazol-3-yl)amino]pyrimidin-2-yl]sulfanylphenyl]cyclopropanecarboxamide

>  <Synonyms>


>  <Type>
NON-POLYMER

>  <Formula>
C23 H28 N8 O S

>  <MolecularWeight>
464.586

>  <ModifiedDate>
2011-06-04

>  <Parent>


>  <OneLetterCode>


>  <SubcomponentList>


>  <AmbiguousFlag>
N

>  <InChI>
InChI=1S/C23H28N8OS/c1-15-13-20(29-28-15)25-19-14-21(31-11-9-30(2)10-12-31)27-23(26-19)33-18-7-5-17(6-8-18)24-22(32)16-3-4-16/h5-8,13-14,16H,3-4,9-12H2,1-2H3,(H,24,32)(H2,25,26,27,28,29)

>  <InChIKey>
GCIKSSRWRFVXBI-UHFFFAOYSA-N

>  <SMILES>
Cc1cc([nH]n1)Nc2cc(nc(n2)Sc3ccc(cc3)NC(=O)C4CC4)N5CCN(CC5)C

$$$$
